scsub> Executing:  'cd /home/hem1dev/Codes/SU2_Github_Mark_Test/SU2/Venturi'


WARNING: CONV_CRITERIA is deprecated. SU2 will choose the criteria automatically based on the CONV_FIELD.
That is, RESIDUAL for any RMS_* BGS_* value, and CAUCHY for coefficients such as DRAG etc.


-------------------------------------------------------------------------
|    ___ _   _ ___                                                      |
|   / __| | | |_  )   Release 7.1.1 "Blackbird"                         |
|   \__ \ |_| |/ /                                                      |
|   |___/\___//___|   Suite (Computational Fluid Dynamics Code)         |
|                                                                       |
-------------------------------------------------------------------------
| SU2 Project Website: https://su2code.github.io                        |
|                                                                       |
| The SU2 Project is maintained by the SU2 Foundation                   |
| (http://su2foundation.org)                                            |
-------------------------------------------------------------------------
| Copyright 2012-2021, SU2 Contributors                                 |
|                                                                       |
| SU2 is free software; you can redistribute it and/or                  |
| modify it under the terms of the GNU Lesser General Public            |
| License as published by the Free Software Foundation; either          |
| version 2.1 of the License, or (at your option) any later version.    |
|                                                                       |
| SU2 is distributed in the hope that it will be useful,                |
| but WITHOUT ANY WARRANTY; without even the implied warranty of        |
| MERCHANTABILITY or FITNESS FOR A PARTICULAR PURPOSE. See the GNU      |
| Lesser General Public License for more details.                       |
|                                                                       |
| You should have received a copy of the GNU Lesser General Public      |
| License along with SU2. If not, see <http://www.gnu.org/licenses/>.   |
-------------------------------------------------------------------------


WARNING: CONV_CRITERIA is deprecated. SU2 will choose the criteria automatically based on the CONV_FIELD.
That is, RESIDUAL for any RMS_* BGS_* value, and CAUCHY for coefficients such as DRAG etc.


Parsing config file for zone 0


WARNING: CONV_CRITERIA is deprecated. SU2 will choose the criteria automatically based on the CONV_FIELD.
That is, RESIDUAL for any RMS_* BGS_* value, and CAUCHY for coefficients such as DRAG etc.


----------------- Physical Case Definition ( Zone 0 ) -------------------
Incompressible RANS equations.
Turbulence model: Menter's SST
Hybrid RANS/LES: No Hybrid RANS/LES
No restart solution, use the values at infinity (freestream).
Dimensional simulation.
The reference area is 1 m^2.
The semi-span will be computed using the max y(3D) value.
The reference length is 1 m.
Input mesh file name: c6_cms_venturi.cgns

--------------- Space Numerical Integration ( Zone 0 ) ------------------
Flux difference splitting (FDS) upwind scheme for the flow inviscid terms.
Second order integration in space, with slope limiter.
No slope-limiting method. 
Average of gradients with correction (viscous flow terms).
Average of gradients with correction (viscous turbulence terms).
Gradient for upwind reconstruction: Green-Gauss.
Gradient for viscous and source terms: Green-Gauss.

--------------- Time Numerical Integration  ( Zone 0 ) ------------------
Local time stepping (steady state simulation).
Euler implicit method for the flow equations.
FGMRES is used for solving the linear system.
Using a ILU(0) preconditioning.
Convergence criteria of the linear solver: 1e-08.
Max number of linear iterations: 50.
No CFL adaptation.
Courant-Friedrichs-Lewy number:      100
Euler implicit time integration for the turbulence model.

------------------ Convergence Criteria  ( Zone 0 ) ---------------------
Maximum number of solver subiterations: 15000.
Begin convergence monitoring at iteration 10.
Residual minimum value: 1e-10.
Cauchy series min. value: 1e-06.
Number of Cauchy elements: 100.
Begin windowed time average at iteration 0.

-------------------- Output Information ( Zone 0 ) ----------------------
Writing solution files every 1000 iterations.
Writing the convergence history file every 1 inner iterations.
Writing the screen convergence history every 1 inner iterations.
The tabular file format is CSV (.csv).
Convergence history file name: history_test.
Forces breakdown file name: forces_breakdown.dat.
Surface file name: surface_flow_venturi_mixturedensity_30kW_fine_test.
Volume file name: flow_venturi_mixturedensity_30kW_fine_test.
Restart file name: restart_venturi_mixturedensity_30kW_fine_test.dat.

------------- Config File Boundary Information ( Zone 0 ) ---------------
+-----------------------------------------------------------------------+
|                        Marker Type|                        Marker Name|
+-----------------------------------------------------------------------+
|                     Symmetry plane|                               axis|
+-----------------------------------------------------------------------+
|                     Inlet boundary|                          gas_inlet|
|                                   |                          air_inlet|
+-----------------------------------------------------------------------+
|                    Outlet boundary|                             outlet|
+-----------------------------------------------------------------------+
|                     Heat flux wall|            wall-component1-surface|
+-----------------------------------------------------------------------+

-------------------- Output Preprocessing ( Zone 0 ) --------------------
Screen output fields: INNER_ITER, RMS_PRESSURE, RMS_VELOCITY-X, RMS_VELOCITY-Y, RMS_PASSIVE_SCALAR
History output group(s): RMS_RES, AERO_COEFF, FLOW_COEFF
Convergence field(s): RMS_PRESSURE, RMS_VELOCITY-X, RMS_VELOCITY-Y, RMS_TKE
Warning: No (valid) fields chosen for time convergence monitoring. Time convergence monitoring inactive.
  Info: Ignoring the following volume output fields/groups:
  SOURCE, LOOKUP
Volume output fields: DENSITY, SOLUTION, PRIMITIVE, RESIDUAL, COORDINATES

------------------- Geometry Preprocessing ( Zone 0 ) -------------------
Reading the CGNS file: c6_cms_venturi.cgns.
CGNS file contains 1 database(s).
Database 1, Base:  cell dimension of 2, physical dimension of 2.
1 total zone(s).
Zone 1, Zone: 292948 total vertices, 295883 total elements.
Loading CoordinateX values into linear partitions.
Loading CoordinateY values into linear partitions.
Distributing connectivity across all ranks.
Number of connectivity sections is 6.
Section gas_inlet contains 51 elements of type Mixed.
Section air_inlet contains 150 elements of type Mixed.
Section outlet contains 157 elements of type Mixed.
Section axis contains 1721 elements of type Mixed.
Section component1-surface contains 290183 elements of type Mixed.
Section wall-component1-surface contains 3621 elements of type Mixed.
Loading surface section gas_inlet from file.
Loading surface section air_inlet from file.
Loading surface section outlet from file.
Loading surface section axis from file.
Loading volume section component1-surface from file.
Loading surface section wall-component1-surface from file.
Two dimensional problem.
292948 grid points before partitioning.
290183 volume elements before partitioning.
5 surface markers.
51 boundary elements in index 0 (Marker = gas_inlet).
150 boundary elements in index 1 (Marker = air_inlet).
157 boundary elements in index 2 (Marker = outlet).
1721 boundary elements in index 3 (Marker = axis).
3621 boundary elements in index 4 (Marker = wall-component1-surface).
Executing the partitioning functions.
Building the graph adjacency structure.
Calling ParMETIS... graph partitioning complete (13660 edge cuts).
Distributing ParMETIS coloring.
Rebalancing vertices.
Rebalancing volume element connectivity.
Rebalancing markers and surface elements.
320613 vertices including ghost points. 
303879 interior elements including halo cells. 
174 triangles.
303705 quadrilaterals.
Establishing MPI communication patterns.
Setting point connectivity.
Renumbering points (Reverse Cuthill McKee Ordering).
Recomputing point connectivity.
Setting element connectivity.
Checking the numerical grid orientation.
All volume elements are correctly orientend.
All surface elements are correctly orientend.
Identifying edges and vertices.
Setting the control volume structure.
Area of the computational grid: 0.00286002.
Searching for the closest normal neighbors to the surfaces.
Storing a mapping from global to local point index.
Compute the surface curvature.
Max K: 25766.3. Mean K: 66.0693. Standard deviation K: 1007.76.
Checking for periodicity.
Computing mesh quality statistics for the dual control volumes.
+--------------------------------------------------------------+
|           Mesh Quality Metric|        Minimum|        Maximum|
+--------------------------------------------------------------+
|    Orthogonality Angle (deg.)|        45.2115|             90|
|     CV Face Area Aspect Ratio|              1|        10.3208|
|           CV Sub-Volume Ratio|              1|        9.85984|
+--------------------------------------------------------------+
Finding max control volume width.
Communicating number of neighbors.
Wetted area = 0 m^2.
Area projection in the x-plane = 0 m, y-plane = 0 m.
Max. coordinate in the x-direction = -1e+10 m, y-direction = -1e+10 m.
Min. coordinate in the x-direction = 1e+10 m, y-direction = 1e+10 m.
Checking if Euler & Symmetry markers are straight/plane:
Boundary marker axis is a single straight.
Computing wall distances.

-------------------- Solver Preprocessing ( Zone 0 ) --------------------
Incompressible flow: rho_ref, vel_ref, temp_ref, p_ref
are set to 1.0 in order to perform a dimensional calculation.
Force coefficients computed using initial values.
The reference area for force coeffs. is 1 m^2.
The reference length for force coeffs. is 1 m.
The pressure is decomposed into thermodynamic and dynamic components.
The initial value of the dynamic pressure is 0.
Mach number: 0, computed using fluid speed of sound.
For external flows, the initial state is imposed at the far-field.
Angle of attack (deg): 0, computed using the initial velocity.
Side slip angle (deg): 0, computed using the initial velocity.
Reynolds number per meter: 66852.4, computed using initial values.
Reynolds number is a byproduct of inputs only (not used internally).
SI units only. The grid should be dimensional (meters).
Energy equation is active and coupled for variable density.

-- Models:
+------------------------------------------------------------------------------+
|          Viscosity Model|        Conductivity Model|              Fluid Model|
+------------------------------------------------------------------------------+
|               SUTHERLAND|          CONSTANT_PRANDTL|+------------------------------------------------------------------------------+
-- Fluid properties:
+------------------------------------------------------------------------------+
|                  Name|    Dim. value|    Ref. value|      Unit|Non-dim. value|
+------------------------------------------------------------------------------+
|        Ref. Viscosity|     1.716e-05|             1|   N.s/m^2|     1.716e-05|
|      Sutherland Temp.|        273.15|             1|         K|        273.15|
|     Sutherland Const.|         110.4|             1|         K|         110.4|
+------------------------------------------------------------------------------+
|        Prandtl (Lam.)|             -|             -|         -|          0.72|
|       Prandtl (Turb.)|             -|             -|         -|           0.9|
+------------------------------------------------------------------------------+
-- Initial and free-stream conditions:
+------------------------------------------------------------------------------+
|                  Name|    Dim. value|    Ref. value|      Unit|Non-dim. value|
+------------------------------------------------------------------------------+
|      Dynamic Pressure|             0|             1|        Pa|             0|
|        Total Pressure|           0.6|             1|        Pa|           0.6|
|               Density|           1.2|             1|    kg/m^3|           1.2|
|           Temperature|           300|             1|         K|           300|
|            Velocity-X|             1|             1|       m/s|             1|
|            Velocity-Y|             0|             1|       m/s|             0|
|    Velocity Magnitude|             1|             1|       m/s|             1|
+------------------------------------------------------------------------------+
|             Viscosity|     1.795e-05|             1|   N.s/m^2|     1.795e-05|
|          Conductivity|             -|             1|   W/m^2.K|             -|
|     Turb. Kin. Energy|       0.00375|             1|   m^2/s^2|       0.00375|
|     Spec. Dissipation|       25.0696|             1|       1/s|       25.0696|
+------------------------------------------------------------------------------+
|           Mach Number|             -|             -|         -|             0|
|       Reynolds Number|             -|             -|         -|       66852.4|
+------------------------------------------------------------------------------+
Initialize Jacobian structure (Navier-Stokes). MG level: 0.
Initialize Jacobian structure (passive scalar model).
Initialize Jacobian structure (SST model).

------------------- Numerics Preprocessing ( Zone 0 ) -------------------

----------------- Integration Preprocessing ( Zone 0 ) ------------------

------------------- Iteration Preprocessing ( Zone 0 ) ------------------
Euler/Navier-Stokes/RANS fluid iteration.

------------------------------ Begin Solver -----------------------------

Simulation Run using the Single-zone Driver
Initializing passive scalar (initial condition).
initialization = 1 1
+----------------------------------------------------------------+
|  Inner_Iter|      rms[P]|      rms[U]|      rms[V]|      rms[c]|
+----------------------------------------------------------------+
|           0|   -5.655016|   -6.171094|   -5.612157|   -5.800608|
|           1|   -5.643723|   -5.094625|   -5.375213|   -5.932508|
|           2|   -5.965274|   -5.532688|   -5.589584|   -5.922002|
|           3|   -6.078455|   -5.786630|   -5.590956|   -6.077079|
|           4|   -6.216755|   -5.905918|   -5.586552|   -6.134100|
|           5|   -6.236720|   -6.018682|   -5.619823|   -6.166661|
|           6|   -6.277158|   -6.057041|   -5.657414|   -6.184166|
|           7|   -6.293723|   -6.081613|   -5.768858|   -6.227527|
|           8|   -6.319361|   -6.135630|   -6.037397|   -6.306638|
|           9|   -6.367081|   -6.144654|   -6.154547|   -6.410333|
|          10|   -6.428123|   -6.134352|   -6.007112|   -6.491784|
|          11|   -6.441158|   -6.117034|   -5.860424|   -6.527866|
|          12|   -6.395868|   -6.092574|   -5.734891|   -6.529297|
|          13|   -6.352735|   -6.060287|   -5.643650|   -6.511385|
|          14|   -6.338487|   -6.027104|   -5.592702|   -6.483344|
|          15|   -6.360508|   -5.997827|   -5.599731|   -6.452055|
|          16|   -6.391920|   -5.971651|   -5.634584|   -6.427232|
|          17|   -6.418772|   -5.945367|   -5.677214|   -6.409486|
|          18|   -6.436934|   -5.917015|   -5.711356|   -6.398906|
|          19|   -6.448486|   -5.887614|   -5.728429|   -6.391157|
|          20|   -6.454517|   -5.858512|   -5.726036|   -6.383841|
|          21|   -6.456483|   -5.830144|   -5.709735|   -6.377637|
|          22|   -6.457197|   -5.802853|   -5.686780|   -6.370877|
|          23|   -6.457550|   -5.776385|   -5.662777|   -6.363172|
|          24|   -6.459350|   -5.751264|   -5.642065|   -6.354127|
|          25|   -6.461843|   -5.727851|   -5.621490|   -6.344694|
|          26|   -6.464836|   -5.706615|   -5.603462|   -6.334835|
|          27|   -6.468137|   -5.687522|   -5.588933|   -6.324376|
|          28|   -6.471240|   -5.670128|   -5.578012|   -6.313457|
|          29|   -6.474052|   -5.653977|   -5.568539|   -6.302217|
|          30|   -6.476860|   -5.638695|   -5.560071|   -6.290860|
|          31|   -6.479883|   -5.624050|   -5.552645|   -6.279383|
|          32|   -6.483210|   -5.609874|   -5.546280|   -6.267826|
|          33|   -6.486969|   -5.596113|   -5.541800|   -6.256223|
|          34|   -6.490894|   -5.582733|   -5.539051|   -6.244627|
|          35|   -6.495009|   -5.569752|   -5.537641|   -6.233113|
|          36|   -6.499196|   -5.557172|   -5.536843|   -6.221773|
|          37|   -6.503360|   -5.545010|   -5.536116|   -6.210644|
|          38|   -6.507242|   -5.533292|   -5.535130|   -6.199728|
|          39|   -6.510646|   -5.522005|   -5.533686|   -6.189022|
|          40|   -6.513608|   -5.511156|   -5.531679|   -6.178556|
|          41|   -6.516186|   -5.500735|   -5.529162|   -6.168342|
|          42|   -6.518464|   -5.490722|   -5.526084|   -6.158290|
|          43|   -6.520595|   -5.481074|   -5.522662|   -6.148379|
|          44|   -6.522736|   -5.471783|   -5.519241|   -6.138635|
|          45|   -6.524829|   -5.462807|   -5.515524|   -6.129167|
|          46|   -6.526896|   -5.454162|   -5.511843|   -6.119904|
|          47|   -6.528963|   -5.445849|   -5.508537|   -6.110794|
|          48|   -6.530992|   -5.437823|   -5.505752|   -6.101838|
|          49|   -6.533073|   -5.430061|   -5.503513|   -6.093020|
|          50|   -6.535246|   -5.422531|   -5.501732|   -6.084409|
|          51|   -6.537377|   -5.415169|   -5.499389|   -6.076088|
|          52|   -6.539316|   -5.407969|   -5.497384|   -6.068009|
|          53|   -6.541049|   -5.400973|   -5.495595|   -6.060090|
|          54|   -6.542742|   -5.394189|   -5.494083|   -6.052309|
|          55|   -6.544413|   -5.387587|   -5.492859|   -6.044694|
|          56|   -6.546012|   -5.381130|   -5.491912|   -6.037302|
|          57|   -6.547541|   -5.374829|   -5.491197|   -6.030122|
|          58|   -6.548955|   -5.368691|   -5.490630|   -6.023155|
|          59|   -6.550203|   -5.362682|   -5.490156|   -6.016400|
|          60|   -6.551442|   -5.356855|   -5.489733|   -6.009849|
|          61|   -6.552667|   -5.351230|   -5.489343|   -6.003479|
|          62|   -6.553806|   -5.345791|   -5.488926|   -5.997291|
|          63|   -6.554890|   -5.340547|   -5.488441|   -5.991299|
|          64|   -6.555767|   -5.335531|   -5.487919|   -5.985486|
|          65|   -6.556525|   -5.330745|   -5.487345|   -5.979860|
|          66|   -6.557085|   -5.326204|   -5.486733|   -5.974417|
|          67|   -6.557505|   -5.321918|   -5.486075|   -5.969122|
|          68|   -6.557830|   -5.317910|   -5.485249|   -5.963964|
|          69|   -6.558025|   -5.314155|   -5.484363|   -5.958969|
|          70|   -6.557980|   -5.310644|   -5.483452|   -5.954092|
|          71|   -6.557878|   -5.307394|   -5.482529|   -5.949335|
|          72|   -6.557641|   -5.304384|   -5.481597|   -5.944690|
|          73|   -6.557221|   -5.301537|   -5.480636|   -5.940164|
|          74|   -6.556599|   -5.298827|   -5.479664|   -5.935733|
|          75|   -6.555899|   -5.296195|   -5.478699|   -5.931403|
|          76|   -6.555155|   -5.293543|   -5.477776|   -5.927139|
|          77|   -6.554294|   -5.290853|   -5.476933|   -5.922966|
|          78|   -6.553354|   -5.287964|   -5.476257|   -5.918888|
|          79|   -6.552366|   -5.284796|   -5.475845|   -5.914951|
|          80|   -6.551150|   -5.281271|   -5.475752|   -5.911142|
|          81|   -6.549912|   -5.277330|   -5.476026|   -5.907466|
|          82|   -6.548784|   -5.272989|   -5.476748|   -5.903868|
|          83|   -6.547853|   -5.268264|   -5.477991|   -5.900365|
|          84|   -6.546999|   -5.263236|   -5.479773|   -5.896994|
|          85|   -6.546302|   -5.257955|   -5.482075|   -5.893721|
|          86|   -6.545686|   -5.252508|   -5.484825|   -5.890555|
|          87|   -6.545175|   -5.247000|   -5.487920|   -5.887487|
|          88|   -6.544817|   -5.241574|   -5.491481|   -5.884486|
|          89|   -6.544579|   -5.236272|   -5.495458|   -5.881559|
|          90|   -6.544759|   -5.231167|   -5.499752|   -5.878693|
|          91|   -6.544721|   -5.226275|   -5.504360|   -5.875953|
|          92|   -6.545202|   -5.221575|   -5.509149|   -5.873269|
|          93|   -6.545458|   -5.217107|   -5.514151|   -5.870751|
|          94|   -6.545886|   -5.212739|   -5.519241|   -5.868244|
|          95|   -6.546746|   -5.208527|   -5.524377|   -5.865831|
|          96|   -6.547055|   -5.204658|   -5.529566|   -5.863510|
|          97|   -6.547987|   -5.200896|   -5.534156|   -5.861257|
|          98|   -6.549082|   -5.197226|   -5.538423|   -5.859143|
|          99|   -6.549862|   -5.193837|   -5.542391|   -5.857126|
|         100|   -6.550893|   -5.190670|   -5.545895|   -5.855168|
|         101|   -6.551994|   -5.187538|   -5.548756|   -5.853271|
|         102|   -6.553052|   -5.184408|   -5.550844|   -5.851449|
|         103|   -6.554065|   -5.181335|   -5.551890|   -5.849687|
|         104|   -6.555375|   -5.178169|   -5.551859|   -5.847983|
|         105|   -6.556683|   -5.174899|   -5.551412|   -5.846308|
|         106|   -6.557795|   -5.171595|   -5.550683|   -5.844656|
|         107|   -6.559015|   -5.168229|   -5.549845|   -5.842995|
|         108|   -6.560037|   -5.164939|   -5.548768|   -5.841334|
|         109|   -6.560980|   -5.161928|   -5.546839|   -5.839688|
|         110|   -6.561938|   -5.159311|   -5.543759|   -5.838067|
|         111|   -6.562626|   -5.156965|   -5.538500|   -5.836485|
|         112|   -6.562984|   -5.154598|   -5.530184|   -5.834938|
|         113|   -6.563312|   -5.152026|   -5.522690|   -5.833409|
|         114|   -6.563416|   -5.149251|   -5.519690|   -5.831933|
|         115|   -6.563791|   -5.146255|   -5.519645|   -5.830494|
|         116|   -6.564390|   -5.143538|   -5.519756|   -5.829157|
|         117|   -6.564797|   -5.141572|   -5.517022|   -5.827937|
|         118|   -6.565440|   -5.140368|   -5.512483|   -5.826762|
|         119|   -6.566073|   -5.139681|   -5.508393|   -5.825552|
|         120|   -6.566160|   -5.139135|   -5.504490|   -5.824240|
|         121|   -6.565945|   -5.138401|   -5.499689|   -5.822778|
|         122|   -6.565153|   -5.137619|   -5.494222|   -5.821189|
|         123|   -6.563516|   -5.136867|   -5.488386|   -5.819589|
|         124|   -6.561076|   -5.136178|   -5.482651|   -5.818103|
|         125|   -6.558214|   -5.135651|   -5.477329|   -5.816826|
|         126|   -6.555694|   -5.135341|   -5.472542|   -5.815756|
|         127|   -6.552756|   -5.135399|   -5.467684|   -5.814876|
|         128|   -6.549019|   -5.135750|   -5.461314|   -5.814114|
|         129|   -6.544710|   -5.136195|   -5.453678|   -5.813379|
|         130|   -6.541813|   -5.136958|   -5.446319|   -5.812258|
|         131|   -6.540367|   -5.137989|   -5.439589|   -5.810384|
|         132|   -6.537685|   -5.138652|   -5.433631|   -5.807922|
|         133|   -6.531316|   -5.138750|   -5.429063|   -5.805167|
|         134|   -6.522352|   -5.138174|   -5.425450|   -5.802425|
|         135|   -6.510891|   -5.136633|   -5.420880|   -5.799911|
|         136|   -6.499362|   -5.134015|   -5.414582|   -5.797846|
|         137|   -6.491225|   -5.131566|   -5.409764|   -5.796636|
|         138|   -6.485720|   -5.130525|   -5.407895|   -5.796561|
|         139|   -6.484720|   -5.130472|   -5.406791|   -5.798002|
|         140|   -6.486781|   -5.130665|   -5.408072|   -5.800025|
|         141|   -6.495453|   -5.132187|   -5.412802|   -5.801805|
|         142|   -6.507941|   -5.135382|   -5.418678|   -5.803561|
|         143|   -6.519216|   -5.140259|   -5.424616|   -5.805108|
|         144|   -6.530884|   -5.147217|   -5.430387|   -5.806003|
|         145|   -6.540832|   -5.154609|   -5.434589|   -5.806312|
|         146|   -6.546549|   -5.160746|   -5.436059|   -5.806270|
|         147|   -6.549206|   -5.165595|   -5.435631|   -5.805989|
|         148|   -6.550126|   -5.169750|   -5.434505|   -5.805560|
|         149|   -6.549739|   -5.173457|   -5.432554|   -5.805042|
|         150|   -6.548710|   -5.176602|   -5.429467|   -5.804446|
|         151|   -6.547284|   -5.179094|   -5.425367|   -5.803795|
|         152|   -6.545579|   -5.180995|   -5.420540|   -5.803106|
|         153|   -6.543742|   -5.182411|   -5.415255|   -5.802414|
|         154|   -6.541708|   -5.183464|   -5.409705|   -5.801754|
|         155|   -6.539500|   -5.184251|   -5.403976|   -5.801126|
|         156|   -6.537214|   -5.184846|   -5.398157|   -5.800519|
|         157|   -6.534874|   -5.185282|   -5.392310|   -5.799928|
|         158|   -6.532529|   -5.185601|   -5.386497|   -5.799370|
|         159|   -6.530233|   -5.185806|   -5.380725|   -5.798886|
|         160|   -6.527885|   -5.185914|   -5.375013|   -5.798483|
|         161|   -6.525528|   -5.185958|   -5.369367|   -5.798143|
|         162|   -6.523220|   -5.185996|   -5.363847|   -5.797822|
|         163|   -6.520985|   -5.186025|   -5.358464|   -5.797500|
|         164|   -6.518883|   -5.186011|   -5.353224|   -5.797201|
|         165|   -6.516831|   -5.185921|   -5.348092|   -5.796960|
|         166|   -6.514808|   -5.185774|   -5.343058|   -5.796798|
|         167|   -6.512812|   -5.185605|   -5.338127|   -5.796690|
|         168|   -6.510947|   -5.185437|   -5.333331|   -5.796597|
|         169|   -6.509267|   -5.185257|   -5.328681|   -5.796500|
|         170|   -6.507803|   -5.185019|   -5.323054|   -5.796417|
|         171|   -6.506803|   -5.184613|   -5.314686|   -5.796345|
|         172|   -6.506698|   -5.183904|   -5.306851|   -5.796251|
|         173|   -6.506959|   -5.183185|   -5.299499|   -5.796137|
|         174|   -6.507279|   -5.182547|   -5.292768|   -5.796006|
|         175|   -6.507683|   -5.181962|   -5.286455|   -5.795846|
|         176|   -6.508241|   -5.181306|   -5.280684|   -5.795681|
|         177|   -6.508908|   -5.180544|   -5.275383|   -5.795545|
|         178|   -6.509656|   -5.179690|   -5.270564|   -5.795457|
|         179|   -6.510496|   -5.178789|   -5.266226|   -5.795402|
|         180|   -6.511519|   -5.177881|   -5.262369|   -5.795351|
|         181|   -6.512767|   -5.176969|   -5.258973|   -5.795289|
|         182|   -6.514273|   -5.176025|   -5.256005|   -5.795237|
|         183|   -6.515999|   -5.175015|   -5.253427|   -5.795243|
|         184|   -6.517908|   -5.173944|   -5.251206|   -5.795338|
|         185|   -6.519988|   -5.172842|   -5.249325|   -5.795508|
|         186|   -6.522270|   -5.171742|   -5.247783|   -5.795721|
|         187|   -6.524750|   -5.170647|   -5.246546|   -5.795943|
|         188|   -6.527483|   -5.169562|   -5.245603|   -5.796150|
|         189|   -6.530445|   -5.168452|   -5.244925|   -5.796365|
|         190|   -6.533575|   -5.167304|   -5.244490|   -5.796611|
|         191|   -6.536843|   -5.166138|   -5.244285|   -5.796902|
|         192|   -6.540215|   -5.164987|   -5.244301|   -5.797226|
|         193|   -6.543715|   -5.163878|   -5.244525|   -5.797554|
|         194|   -6.547356|   -5.162815|   -5.244938|   -5.797870|
|         195|   -6.551137|   -5.161793|   -5.245517|   -5.798172|
|         196|   -6.555017|   -5.160792|   -5.246230|   -5.798492|
|         197|   -6.558945|   -5.159813|   -5.247056|   -5.798859|
|         198|   -6.562847|   -5.158875|   -5.247980|   -5.799275|
|         199|   -6.566728|   -5.158008|   -5.248992|   -5.799723|
|         200|   -6.570599|   -5.157242|   -5.250086|   -5.800154|
|         201|   -6.574489|   -5.156560|   -5.251245|   -5.800550|
|         202|   -6.578376|   -5.155938|   -5.252444|   -5.800904|
|         203|   -6.582269|   -5.155368|   -5.253674|   -5.801226|
|         204|   -6.586121|   -5.154830|   -5.254914|   -5.801533|
|         205|   -6.589881|   -5.154321|   -5.256151|   -5.801845|
|         206|   -6.593502|   -5.153863|   -5.257378|   -5.802159|
|         207|   -6.596998|   -5.153465|   -5.258589|   -5.802455|
|         208|   -6.600409|   -5.153141|   -5.259786|   -5.802716|
|         209|   -6.603707|   -5.152865|   -5.260948|   -5.802938|
|         210|   -6.606900|   -5.152640|   -5.262069|   -5.803116|
|         211|   -6.609970|   -5.152453|   -5.263138|   -5.803262|
|         212|   -6.612870|   -5.152300|   -5.264150|   -5.803384|
|         213|   -6.615563|   -5.152185|   -5.265105|   -5.803484|
|         214|   -6.618035|   -5.152111|   -5.265997|   -5.803549|
|         215|   -6.620326|   -5.152085|   -5.266840|   -5.803557|
|         216|   -6.622451|   -5.152108|   -5.267641|   -5.803474|
|         217|   -6.624450|   -5.152168|   -5.268399|   -5.803305|
|         218|   -6.626272|   -5.152231|   -5.269094|   -5.803061|
|         219|   -6.627923|   -5.152295|   -5.269744|   -5.802752|
|         220|   -6.629460|   -5.152367|   -5.270370|   -5.802386|
|         221|   -6.630818|   -5.152442|   -5.270978|   -5.801974|
|         222|   -6.631983|   -5.152507|   -5.271546|   -5.801531|
|         223|   -6.632987|   -5.152573|   -5.272091|   -5.801058|
|         224|   -6.633879|   -5.152647|   -5.272638|   -5.800537|
|         225|   -6.634676|   -5.152719|   -5.273193|   -5.799968|
|         226|   -6.635331|   -5.152757|   -5.273741|   -5.799358|
|         227|   -6.635932|   -5.152774|   -5.274293|   -5.798696|
|         228|   -6.636493|   -5.152766|   -5.274889|   -5.797988|
|         229|   -6.636967|   -5.152704|   -5.275498|   -5.797240|
|         230|   -6.637304|   -5.152578|   -5.276130|   -5.796477|
|         231|   -6.637639|   -5.152394|   -5.276785|   -5.795682|
|         232|   -6.637943|   -5.152158|   -5.277514|   -5.794852|
|         233|   -6.638246|   -5.151851|   -5.278281|   -5.793991|
|         234|   -6.638474|   -5.151473|   -5.279104|   -5.793102|
|         235|   -6.638622|   -5.151021|   -5.279967|   -5.792181|
|         236|   -6.638768|   -5.150492|   -5.280890|   -5.791218|
|         237|   -6.638952|   -5.149886|   -5.281881|   -5.790205|
|         238|   -6.639067|   -5.149192|   -5.282949|   -5.789148|
|         239|   -6.639160|   -5.148400|   -5.284068|   -5.788045|
|         240|   -6.639278|   -5.147512|   -5.285259|   -5.786897|
|         241|   -6.639422|   -5.146527|   -5.286530|   -5.785713|
|         242|   -6.639607|   -5.145450|   -5.287880|   -5.784506|
|         243|   -6.639762|   -5.144280|   -5.289312|   -5.783286|
|         244|   -6.639937|   -5.143021|   -5.290819|   -5.782052|
|         245|   -6.640153|   -5.141679|   -5.292427|   -5.780814|
|         246|   -6.640448|   -5.140257|   -5.294142|   -5.779576|
|         247|   -6.640682|   -5.138756|   -5.295969|   -5.778337|
|         248|   -6.640946|   -5.137173|   -5.297857|   -5.777109|
|         249|   -6.641394|   -5.135524|   -5.299859|   -5.775894|
|         250|   -6.641850|   -5.133815|   -5.302026|   -5.774689|
|         251|   -6.642301|   -5.132033|   -5.304317|   -5.773508|
|         252|   -6.642827|   -5.130186|   -5.306739|   -5.772364|
|         253|   -6.643340|   -5.128281|   -5.309315|   -5.771230|
|         254|   -6.643966|   -5.126308|   -5.312045|   -5.770137|
|         255|   -6.644643|   -5.124294|   -5.314956|   -5.769065|
|         256|   -6.645220|   -5.122225|   -5.318023|   -5.768026|
|         257|   -6.645888|   -5.120101|   -5.321255|   -5.767020|
|         258|   -6.646557|   -5.117943|   -5.324683|   -5.766029|
|         259|   -6.647334|   -5.115748|   -5.328310|   -5.765088|
|         260|   -6.648139|   -5.113529|   -5.332160|   -5.764161|
|         261|   -6.648816|   -5.111280|   -5.336192|   -5.763292|
|         262|   -6.649604|   -5.109003|   -5.340410|   -5.762472|
|         263|   -6.650253|   -5.106695|   -5.344864|   -5.761747|
|         264|   -6.650860|   -5.104304|   -5.349544|   -5.761069|
|         265|   -6.651461|   -5.101885|   -5.354434|   -5.760489|
|         266|   -6.652090|   -5.099552|   -5.359488|   -5.759987|
|         267|   -6.652790|   -5.097268|   -5.364748|   -5.759542|
|         268|   -6.653784|   -5.095070|   -5.370184|   -5.759154|
|         269|   -6.654847|   -5.092972|   -5.375849|   -5.758807|
|         270|   -6.655985|   -5.090953|   -5.381646|   -5.758545|
|         271|   -6.657299|   -5.089038|   -5.387596|   -5.758321|
|         272|   -6.658652|   -5.087215|   -5.393682|   -5.758196|
|         273|   -6.660295|   -5.085505|   -5.399889|   -5.758099|
|         274|   -6.661728|   -5.083899|   -5.406273|   -5.758057|
|         275|   -6.663415|   -5.082373|   -5.412628|   -5.758098|
|         276|   -6.665228|   -5.080977|   -5.419126|   -5.758161|
|         277|   -6.666916|   -5.079695|   -5.425660|   -5.758271|
|         278|   -6.668771|   -5.078517|   -5.432161|   -5.758457|
|         279|   -6.670467|   -5.077455|   -5.438722|   -5.758649|
|         280|   -6.672268|   -5.076492|   -5.445159|   -5.758903|
|         281|   -6.674287|   -5.075679|   -5.451563|   -5.759158|
|         282|   -6.676028|   -5.074989|   -5.457933|   -5.759443|
|         283|   -6.677719|   -5.074391|   -5.464067|   -5.759777|
|         284|   -6.679487|   -5.073901|   -5.470067|   -5.760156|
|         285|   -6.681041|   -5.073508|   -5.475914|   -5.760542|
|         286|   -6.682773|   -5.073223|   -5.481406|   -5.760945|
|         287|   -6.684554|   -5.073072|   -5.486707|   -5.761354|
|         288|   -6.686200|   -5.073032|   -5.491752|   -5.761789|
|         289|   -6.687623|   -5.073084|   -5.496405|   -5.762275|
|         290|   -6.689027|   -5.073228|   -5.500629|   -5.762832|
|         291|   -6.690353|   -5.073464|   -5.504526|   -5.763413|
|         292|   -6.691473|   -5.073803|   -5.507991|   -5.763995|
|         293|   -6.692614|   -5.074245|   -5.510950|   -5.764636|
|         294|   -6.693946|   -5.074811|   -5.513494|   -5.765326|
|         295|   -6.695041|   -5.075470|   -5.515599|   -5.766036|
|         296|   -6.696101|   -5.076208|   -5.517150|   -5.766848|
|         297|   -6.697244|   -5.077056|   -5.518283|   -5.767692|
|         298|   -6.698212|   -5.078000|   -5.519078|   -5.768538|
|         299|   -6.698931|   -5.079017|   -5.519406|   -5.769398|
|         300|   -6.699589|   -5.080112|   -5.519282|   -5.770290|
|         301|   -6.700281|   -5.081292|   -5.518849|   -5.771221|
|         302|   -6.700795|   -5.082562|   -5.518126|   -5.772226|
|         303|   -6.701065|   -5.083902|   -5.517056|   -5.773297|
|         304|   -6.701539|   -5.085318|   -5.515686|   -5.774418|
|         305|   -6.702060|   -5.086838|   -5.514198|   -5.775581|
|         306|   -6.702398|   -5.088445|   -5.512514|   -5.776795|
|         307|   -6.702742|   -5.090117|   -5.510642|   -5.778071|
|         308|   -6.703227|   -5.091875|   -5.508699|   -5.779441|
|         309|   -6.703723|   -5.093726|   -5.506770|   -5.780869|
|         310|   -6.704060|   -5.095651|   -5.504816|   -5.782340|
|         311|   -6.704391|   -5.097640|   -5.502826|   -5.783874|
|         312|   -6.704913|   -5.099710|   -5.500876|   -5.785526|
|         313|   -6.705363|   -5.101863|   -5.499058|   -5.787221|
|         314|   -6.705642|   -5.104067|   -5.497284|   -5.788972|
|         315|   -6.706111|   -5.106338|   -5.495539|   -5.790796|
|         316|   -6.706710|   -5.108705|   -5.493946|   -5.792672|
|         317|   -6.707237|   -5.111140|   -5.492494|   -5.794601|
|         318|   -6.707644|   -5.113643|   -5.491105|   -5.796584|
|         319|   -6.708135|   -5.116217|   -5.489790|   -5.798648|
|         320|   -6.708790|   -5.118871|   -5.488602|   -5.800769|
|         321|   -6.709424|   -5.121601|   -5.487543|   -5.802951|
|         322|   -6.709996|   -5.124403|   -5.486557|   -5.805189|
|         323|   -6.710619|   -5.127268|   -5.485618|   -5.807512|
|         324|   -6.711321|   -5.130206|   -5.484767|   -5.809909|
|         325|   -6.711952|   -5.133220|   -5.483979|   -5.812409|
|         326|   -6.712544|   -5.136305|   -5.483219|   -5.814960|
|         327|   -6.713161|   -5.139462|   -5.482468|   -5.817586|
|         328|   -6.713876|   -5.142699|   -5.481740|   -5.820270|
|         329|   -6.714530|   -5.146014|   -5.481032|   -5.823005|
|         330|   -6.715087|   -5.149395|   -5.480299|   -5.825794|
|         331|   -6.715657|   -5.152841|   -5.479525|   -5.828655|
|         332|   -6.716212|   -5.156359|   -5.478732|   -5.831566|
|         333|   -6.716638|   -5.159939|   -5.477901|   -5.834517|
|         334|   -6.716873|   -5.163569|   -5.477007|   -5.837507|
|         335|   -6.717071|   -5.167248|   -5.476025|   -5.840563|
|         336|   -6.717284|   -5.170994|   -5.474982|   -5.843655|
|         337|   -6.717263|   -5.174798|   -5.473880|   -5.846780|
|         338|   -6.717048|   -5.178640|   -5.472674|   -5.849933|
|         339|   -6.716711|   -5.182525|   -5.471375|   -5.853133|
|         340|   -6.716340|   -5.186457|   -5.470012|   -5.856360|
|         341|   -6.715895|   -5.190436|   -5.468602|   -5.859624|
|         342|   -6.715329|   -5.194472|   -5.467118|   -5.862904|
|         343|   -6.714630|   -5.198550|   -5.465565|   -5.866217|
|         344|   -6.713750|   -5.202661|   -5.463963|   -5.869520|
|         345|   -6.712544|   -5.206774|   -5.462316|   -5.872796|
|         346|   -6.711004|   -5.210886|   -5.460603|   -5.876044|
|         347|   -6.709270|   -5.214991|   -5.458829|   -5.879289|
|         348|   -6.707422|   -5.219104|   -5.457027|   -5.882503|
|         349|   -6.705461|   -5.223232|   -5.455198|   -5.885706|
|         350|   -6.703331|   -5.227393|   -5.453334|   -5.888843|
|         351|   -6.700858|   -5.231555|   -5.451446|   -5.891901|
|         352|   -6.698093|   -5.235673|   -5.449564|   -5.894857|
|         353|   -6.694990|   -5.239737|   -5.447701|   -5.897726|
|         354|   -6.691717|   -5.243756|   -5.445847|   -5.900534|
|         355|   -6.688360|   -5.247758|   -5.444010|   -5.903281|
|         356|   -6.684772|   -5.251719|   -5.442218|   -5.905877|
|         357|   -6.680783|   -5.255578|   -5.440485|   -5.908315|
|         358|   -6.676494|   -5.259286|   -5.438810|   -5.910633|
|         359|   -6.672192|   -5.262858|   -5.437212|   -5.912955|
|         360|   -6.667787|   -5.266345|   -5.435718|   -5.915080|
|         361|   -6.663003|   -5.269667|   -5.434338|   -5.917019|
|         362|   -6.657933|   -5.272756|   -5.433071|   -5.918875|
|         363|   -6.652857|   -5.275639|   -5.431922|   -5.920742|
|         364|   -6.647619|   -5.278356|   -5.430906|   -5.922399|
|         365|   -6.642005|   -5.280817|   -5.430043|   -5.923847|
|         366|   -6.636297|   -5.282971|   -5.429348|   -5.925457|
|         367|   -6.630651|   -5.284911|   -5.428829|   -5.926972|
|         368|   -6.624683|   -5.286642|   -5.428500|   -5.928292|
|         369|   -6.618586|   -5.288074|   -5.428386|   -5.929703|
|         370|   -6.612656|   -5.289286|   -5.428499|   -5.931235|
|         371|   -6.606710|   -5.290389|   -5.428841|   -5.932721|
|         372|   -6.600825|   -5.291395|   -5.429434|   -5.934328|
|         373|   -6.595534|   -5.292433|   -5.430306|   -5.936126|
|         374|   -6.590780|   -5.293633|   -5.431186|   -5.938062|
|         375|   -6.586264|   -5.294898|   -5.430972|   -5.940068|
|         376|   -6.582022|   -5.296130|   -5.431185|   -5.942205|
|         377|   -6.578003|   -5.297393|   -5.431524|   -5.944553|
|         378|   -6.574124|   -5.298702|   -5.432094|   -5.946952|
|         379|   -6.570470|   -5.300003|   -5.431864|   -5.949575|
|         380|   -6.567099|   -5.301295|   -5.430362|   -5.952275|
|         381|   -6.563842|   -5.302581|   -5.429202|   -5.955030|
|         382|   -6.560678|   -5.303906|   -5.428104|   -5.957900|
|         383|   -6.557675|   -5.305284|   -5.427153|   -5.960760|
|         384|   -6.554762|   -5.306699|   -5.426305|   -5.963738|
|         385|   -6.551930|   -5.308150|   -5.425615|   -5.966702|
|         386|   -6.549197|   -5.309603|   -5.425070|   -5.969774|
|         387|   -6.546565|   -5.311049|   -5.424670|   -5.972894|
|         388|   -6.544010|   -5.312474|   -5.424398|   -5.976031|
|         389|   -6.541518|   -5.313871|   -5.424230|   -5.979239|
|         390|   -6.539099|   -5.315249|   -5.424139|   -5.982414|
|         391|   -6.536717|   -5.316611|   -5.424103|   -5.985575|
|         392|   -6.534376|   -5.317954|   -5.424110|   -5.988733|
|         393|   -6.532085|   -5.319278|   -5.424154|   -5.991862|
|         394|   -6.529847|   -5.320577|   -5.424232|   -5.994945|
|         395|   -6.527671|   -5.321839|   -5.424342|   -5.997963|
|         396|   -6.525552|   -5.323052|   -5.424481|   -6.000882|
|         397|   -6.523501|   -5.324208|   -5.424643|   -6.003725|
|         398|   -6.521509|   -5.325299|   -5.424817|   -6.006443|
|         399|   -6.519582|   -5.326320|   -5.424991|   -6.009063|
|         400|   -6.517710|   -5.327261|   -5.425155|   -6.011513|
|         401|   -6.515901|   -5.328122|   -5.425298|   -6.013817|
|         402|   -6.514145|   -5.328898|   -5.425403|   -6.015949|
|         403|   -6.512444|   -5.329588|   -5.425458|   -6.017895|
|         404|   -6.510803|   -5.330195|   -5.425462|   -6.019642|
|         405|   -6.509224|   -5.330723|   -5.425419|   -6.021191|
|         406|   -6.507705|   -5.331181|   -5.425326|   -6.022507|
|         407|   -6.506410|   -5.331587|   -5.419844|   -6.023573|
|         408|   -6.504852|   -5.331752|   -5.411773|   -6.024371|
|         409|   -6.502733|   -5.331585|   -5.402759|   -6.024918|
|         410|   -6.500516|   -5.331154|   -5.393334|   -6.025195|
|         411|   -6.498352|   -5.330550|   -5.383716|   -6.025177|
|         412|   -6.496410|   -5.329863|   -5.374334|   -6.024911|
|         413|   -6.494781|   -5.329164|   -5.365422|   -6.024384|
|         414|   -6.493479|   -5.328489|   -5.357037|   -6.023580|
|         415|   -6.492482|   -5.327841|   -5.349144|   -6.022527|
|         416|   -6.491753|   -5.327205|   -5.341686|   -6.021209|
|         417|   -6.491249|   -5.326555|   -5.334606|   -6.019626|
|         418|   -6.490934|   -5.325849|   -5.327861|   -6.017791|
|         419|   -6.490780|   -5.325047|   -5.321423|   -6.015731|
|         420|   -6.490763|   -5.324110|   -5.315278|   -6.013407|
|         421|   -6.490869|   -5.323006|   -5.309419|   -6.010867|
|         422|   -6.491095|   -5.321708|   -5.303851|   -6.008099|
|         423|   -6.491448|   -5.320195|   -5.298582|   -6.005124|
|         424|   -6.491934|   -5.318455|   -5.293624|   -6.001930|
|         425|   -6.492567|   -5.316474|   -5.288985|   -5.998560|
|         426|   -6.493350|   -5.314249|   -5.284667|   -5.995009|
|         427|   -6.494293|   -5.311774|   -5.280673|   -5.991296|
|         428|   -6.495397|   -5.309046|   -5.277001|   -5.987441|
|         429|   -6.496665|   -5.306061|   -5.273651|   -5.983437|
|         430|   -6.498097|   -5.302819|   -5.270619|   -5.979344|
|         431|   -6.499689|   -5.299318|   -5.267898|   -5.975158|
|         432|   -6.501431|   -5.295556|   -5.265475|   -5.970918|
|         433|   -6.503307|   -5.291532|   -5.263331|   -5.966640|
|         434|   -6.505306|   -5.287245|   -5.261440|   -5.962345|
|         435|   -6.507415|   -5.282700|   -5.259773|   -5.958054|
|         436|   -6.509618|   -5.277896|   -5.258289|   -5.953796|
|         437|   -6.511899|   -5.272830|   -5.256948|   -5.949548|
|         438|   -6.514251|   -5.267502|   -5.255704|   -5.945338|
|         439|   -6.516672|   -5.261898|   -5.254510|   -5.941179|
|         440|   -6.519149|   -5.256018|   -5.253317|   -5.937059|
|         441|   -6.521699|   -5.249872|   -5.252078|   -5.932974|
|         442|   -6.524308|   -5.243448|   -5.250738|   -5.928925|
|         443|   -6.526993|   -5.236744|   -5.249241|   -5.924897|
|         444|   -6.529736|   -5.229762|   -5.247530|   -5.920874|
|         445|   -6.532552|   -5.222508|   -5.245543|   -5.916849|
|         446|   -6.535419|   -5.214973|   -5.243219|   -5.912796|
|         447|   -6.538331|   -5.207160|   -5.240500|   -5.908671|
|         448|   -6.541271|   -5.199078|   -5.237332|   -5.904484|
|         449|   -6.544228|   -5.190739|   -5.233663|   -5.900195|
|         450|   -6.547195|   -5.182154|   -5.229449|   -5.895810|
|         451|   -6.550148|   -5.173353|   -5.224651|   -5.891313|
|         452|   -6.553078|   -5.164377|   -5.219251|   -5.886682|
|         453|   -6.556003|   -5.155228|   -5.213250|   -5.881896|
|         454|   -6.558872|   -5.145974|   -5.206664|   -5.876960|
|         455|   -6.561706|   -5.136666|   -5.199531|   -5.871893|
|         456|   -6.564569|   -5.127333|   -5.191899|   -5.866680|
|         457|   -6.567445|   -5.118034|   -5.183838|   -5.861338|
|         458|   -6.570399|   -5.108818|   -5.175423|   -5.855881|
|         459|   -6.573522|   -5.099712|   -5.166737|   -5.850326|
|         460|   -6.577043|   -5.090721|   -5.157853|   -5.844703|
|         461|   -6.581362|   -5.081799|   -5.148843|   -5.838995|
|         462|   -6.586320|   -5.073203|   -5.139771|   -5.833267|
|         463|   -6.591619|   -5.065593|   -5.130666|   -5.827795|
|         464|   -6.596787|   -5.059356|   -5.121503|   -5.822959|
|         465|   -6.601221|   -5.054115|   -5.112234|   -5.819117|
|         466|   -6.604556|   -5.049058|   -5.102833|   -5.816444|
|         467|   -6.606761|   -5.043484|   -5.093337|   -5.814955|
|         468|   -6.607925|   -5.037066|   -5.083819|   -5.814504|
|         469|   -6.608226|   -5.029801|   -5.074359|   -5.814795|
|         470|   -6.608012|   -5.021863|   -5.065031|   -5.815394|
|         471|   -6.607709|   -5.013579|   -5.055919|   -5.815887|
|         472|   -6.607570|   -5.005407|   -5.047121|   -5.815953|
|         473|   -6.607591|   -4.997796|   -5.038730|   -5.815413|
|         474|   -6.607529|   -4.990962|   -5.030786|   -5.814356|
|         475|   -6.607271|   -4.984781|   -5.023321|   -5.812883|
|         476|   -6.606859|   -4.978937|   -5.016348|   -5.811246|
|         477|   -6.606609|   -4.973174|   -5.009854|   -5.809541|
|         478|   -6.606843|   -4.967434|   -5.003801|   -5.807729|
|         479|   -6.607594|   -4.961831|   -4.998106|   -5.806027|
|         480|   -6.609027|   -4.956475|   -4.992627|   -5.804471|
|         481|   -6.611012|   -4.951425|   -4.987222|   -5.802945|
|         482|   -6.613430|   -4.946633|   -4.981748|   -5.801613|
|         483|   -6.616177|   -4.942031|   -4.976115|   -5.800507|
|         484|   -6.619014|   -4.937544|   -4.970273|   -5.799486|
|         485|   -6.621936|   -4.933118|   -4.964210|   -5.798575|
|         486|   -6.624785|   -4.928741|   -4.957953|   -5.797821|
|         487|   -6.627511|   -4.924407|   -4.951538|   -5.797234|
|         488|   -6.630079|   -4.920141|   -4.945015|   -5.796693|
|         489|   -6.632371|   -4.915955|   -4.938420|   -5.796130|
|         490|   -6.634381|   -4.911863|   -4.931804|   -5.795605|
|         491|   -6.636126|   -4.907887|   -4.925202|   -5.795014|
|         492|   -6.637499|   -4.904032|   -4.918649|   -5.794389|
|         493|   -6.638545|   -4.900329|   -4.912177|   -5.793678|
|         494|   -6.639239|   -4.896794|   -4.905818|   -5.792879|
|         495|   -6.639688|   -4.893453|   -4.899588|   -5.792002|
|         496|   -6.639892|   -4.890330|   -4.893498|   -5.791039|
|         497|   -6.639837|   -4.887440|   -4.887562|   -5.789962|
|         498|   -6.639508|   -4.884797|   -4.881784|   -5.788824|
|         499|   -6.638782|   -4.882413|   -4.876183|   -5.787560|
|         500|   -6.637526|   -4.880269|   -4.870761|   -5.786158|
|         501|   -6.635528|   -4.878338|   -4.865518|   -5.784756|
|         502|   -6.632548|   -4.876597|   -4.860478|   -5.783223|
|         503|   -6.628334|   -4.875007|   -4.855688|   -5.781486|
|         504|   -6.622400|   -4.873504|   -4.851214|   -5.779627|
|         505|   -6.614008|   -4.871995|   -4.847116|   -5.777671|
|         506|   -6.602838|   -4.870392|   -4.843486|   -5.775494|
|         507|   -6.587772|   -4.868668|   -4.840464|   -5.772974|
|         508|   -6.567932|   -4.866883|   -4.838277|   -5.770363|
|         509|   -6.542391|   -4.865163|   -4.837141|   -5.767175|
|         510|   -6.510357|   -4.863836|   -4.837361|   -5.763732|
|         511|   -6.470583|   -4.863512|   -4.839443|   -5.759712|
|         512|   -6.421763|   -4.864989|   -4.843985|   -5.755079|
|         513|   -6.383507|   -4.870973|   -4.851401|   -5.751550|
|         514|   -6.353486|   -4.879698|   -4.863384|   -5.748529|
|         515|   -6.337304|   -4.888582|   -4.880057|   -5.746572|
|         516|   -6.326653|   -4.896681|   -4.902109|   -5.745046|
|         517|   -6.319858|   -4.903600|   -4.929948|   -5.743102|
|         518|   -6.319573|   -4.909283|   -4.962148|   -5.740765|
|         519|   -6.333635|   -4.915193|   -4.994359|   -5.738715|
|         520|   -6.360874|   -4.924084|   -5.025240|   -5.737141|
|         521|   -6.385212|   -4.937217|   -5.062238|   -5.735847|
|         522|   -6.400960|   -4.952825|   -5.094740|   -5.735031|
|         523|   -6.410262|   -4.965045|   -5.107425|   -5.734688|
|         524|   -6.414125|   -4.973223|   -5.135505|   -5.735582|
|         525|   -6.417279|   -4.978155|   -5.171679|   -5.737150|
|         526|   -6.418670|   -4.980677|   -5.206247|   -5.739042|
|         527|   -6.417781|   -4.981164|   -5.231283|   -5.741159|
|         528|   -6.416614|   -4.979483|   -5.244746|   -5.743292|
|         529|   -6.416387|   -4.975535|   -5.249992|   -5.745316|
|         530|   -6.417535|   -4.970600|   -5.252272|   -5.747089|
|         531|   -6.419539|   -4.966037|   -5.253476|   -5.748541|
|         532|   -6.421976|   -4.962509|   -5.253708|   -5.749630|
|         533|   -6.424243|   -4.960067|   -5.252898|   -5.750400|
|         534|   -6.425704|   -4.958432|   -5.251262|   -5.750855|
|         535|   -6.426363|   -4.957134|   -5.249116|   -5.751023|
|         536|   -6.425594|   -4.955923|   -5.246465|   -5.750914|
|         537|   -6.423005|   -4.954663|   -5.243342|   -5.750776|
|         538|   -6.418756|   -4.953335|   -5.240021|   -5.750648|
|         539|   -6.414101|   -4.952271|   -5.236821|   -5.750725|
|         540|   -6.409267|   -4.951088|   -5.232029|   -5.751367|
|         541|   -6.410204|   -4.950149|   -5.226557|   -5.752168|
|         542|   -6.416155|   -4.950422|   -5.222880|   -5.753061|
|         543|   -6.425333|   -4.951674|   -5.220185|   -5.753749|
|         544|   -6.434588|   -4.952760|   -5.218519|   -5.754268|
|         545|   -6.443678|   -4.953740|   -5.217294|   -5.754641|
|         546|   -6.450892|   -4.954746|   -5.215721|   -5.754704|
|         547|   -6.456285|   -4.954671|   -5.213425|   -5.754368|
|         548|   -6.459848|   -4.953200|   -5.211422|   -5.753694|
|         549|   -6.461345|   -4.950834|   -5.210120|   -5.752606|
|         550|   -6.460588|   -4.947733|   -5.208594|   -5.751189|
|         551|   -6.457646|   -4.944181|   -5.206645|   -5.749649|
|         552|   -6.452789|   -4.940609|   -5.204544|   -5.748527|
|         553|   -6.447768|   -4.937231|   -5.202161|   -5.747914|
|         554|   -6.444086|   -4.934232|   -5.199483|   -5.747939|
|         555|   -6.441340|   -4.931824|   -5.196205|   -5.748339|
|         556|   -6.439790|   -4.930024|   -5.192321|   -5.748940|
|         557|   -6.437924|   -4.928992|   -5.188055|   -5.749290|
|         558|   -6.434121|   -4.928604|   -5.183490|   -5.749075|
|         559|   -6.428087|   -4.928422|   -5.178691|   -5.748035|
|         560|   -6.416979|   -4.928284|   -5.173624|   -5.746842|
|         561|   -6.402510|   -4.927998|   -5.168161|   -5.746348|
|         562|   -6.388188|   -4.927636|   -5.162095|   -5.746373|
|         563|   -6.375159|   -4.927041|   -5.155417|   -5.747259|
|         564|   -6.363585|   -4.926158|   -5.148826|   -5.749291|
|         565|   -6.354499|   -4.925897|   -5.143301|   -5.753142|
|         566|   -6.348116|   -4.926810|   -5.138930|   -5.759359|
|         567|   -6.345222|   -4.928534|   -5.135245|   -5.767922|
|         568|   -6.346396|   -4.930917|   -5.133661|   -5.777677|
|         569|   -6.353634|   -4.934875|   -5.133726|   -5.788237|
|         570|   -6.362396|   -4.940014|   -5.134146|   -5.799678|
|         571|   -6.371937|   -4.946423|   -5.134892|   -5.811301|
|         572|   -6.382060|   -4.953988|   -5.135784|   -5.822643|
|         573|   -6.390053|   -4.961504|   -5.136123|   -5.833877|
|         574|   -6.395611|   -4.968648|   -5.135844|   -5.845227|
|         575|   -6.400151|   -4.975613|   -5.135379|   -5.856885|
|         576|   -6.403594|   -4.982587|   -5.134757|   -5.869302|
|         577|   -6.406181|   -4.989295|   -5.133719|   -5.882687|
|         578|   -6.408149|   -4.996035|   -5.132160|   -5.897261|
|         579|   -6.410168|   -5.002627|   -5.130156|   -5.912971|
|         580|   -6.412485|   -5.008757|   -5.127857|   -5.928895|
|         581|   -6.414659|   -5.014885|   -5.125444|   -5.944148|
|         582|   -6.417134|   -5.021255|   -5.122978|   -5.957759|
|         583|   -6.419690|   -5.027756|   -5.120614|   -5.969566|
|         584|   -6.422344|   -5.034082|   -5.118427|   -5.980073|
|         585|   -6.424770|   -5.040059|   -5.116481|   -5.990425|
|         586|   -6.426657|   -5.045553|   -5.114810|   -6.001648|
|         587|   -6.428086|   -5.050431|   -5.113428|   -6.013406|
|         588|   -6.429126|   -5.054515|   -5.112333|   -6.023849|
|         589|   -6.430462|   -5.057954|   -5.111422|   -6.032075|
|         590|   -6.431604|   -5.061091|   -5.108789|   -6.038159|
|         591|   -6.432498|   -5.063878|   -5.106130|   -6.044112|
|         592|   -6.432558|   -5.066448|   -5.103479|   -6.049156|
|         593|   -6.433103|   -5.068949|   -5.100905|   -6.053462|
|         594|   -6.433859|   -5.071345|   -5.098400|   -6.057131|
|         595|   -6.434652|   -5.073625|   -5.096044|   -6.060331|
|         596|   -6.435493|   -5.075824|   -5.093851|   -6.063183|
|         597|   -6.436462|   -5.077969|   -5.091838|   -6.065768|
|         598|   -6.437620|   -5.080061|   -5.090033|   -6.068170|
|         599|   -6.438973|   -5.082105|   -5.088473|   -6.070463|
|         600|   -6.440607|   -5.084103|   -5.087196|   -6.072662|
|         601|   -6.442509|   -5.086055|   -5.086233|   -6.074772|
|         602|   -6.444757|   -5.087952|   -5.085620|   -6.076788|
|         603|   -6.447419|   -5.089734|   -5.085408|   -6.078775|
|         604|   -6.450498|   -5.091379|   -5.085641|   -6.080790|
|         605|   -6.454028|   -5.092863|   -5.086354|   -6.082877|
|         606|   -6.458059|   -5.094172|   -5.087575|   -6.085052|
|         607|   -6.462600|   -5.095315|   -5.089302|   -6.087319|
|         608|   -6.467681|   -5.096314|   -5.091536|   -6.089676|
|         609|   -6.473267|   -5.097224|   -5.094288|   -6.092126|
|         610|   -6.479363|   -5.098111|   -5.097532|   -6.094671|
|         611|   -6.485929|   -5.099053|   -5.101232|   -6.097303|
|         612|   -6.492935|   -5.100111|   -5.105345|   -6.100023|
|         613|   -6.500327|   -5.101332|   -5.109817|   -6.102817|
|         614|   -6.508076|   -5.102741|   -5.114587|   -6.105681|
|         615|   -6.516136|   -5.104343|   -5.119584|   -6.108608|
|         616|   -6.524429|   -5.106121|   -5.124725|   -6.111584|
|         617|   -6.532898|   -5.108045|   -5.129902|   -6.114608|
|         618|   -6.541448|   -5.110097|   -5.134990|   -6.117669|
|         619|   -6.549975|   -5.112254|   -5.139847|   -6.120752|
|         620|   -6.558359|   -5.114498|   -5.144319|   -6.123855|
|         621|   -6.566463|   -5.116822|   -5.148255|   -6.126970|
|         622|   -6.574183|   -5.119216|   -5.151515|   -6.130090|
|         623|   -6.581380|   -5.121668|   -5.153986|   -6.133220|
|         624|   -6.587962|   -5.124149|   -5.155604|   -6.136358|
|         625|   -6.593892|   -5.126616|   -5.156360|   -6.139510|
|         626|   -6.599147|   -5.129011|   -5.156308|   -6.142674|
|         627|   -6.603752|   -5.131255|   -5.155548|   -6.145857|
|         628|   -6.607770|   -5.133259|   -5.154235|   -6.149063|
|         629|   -6.611321|   -5.134927|   -5.152543|   -6.152294|
|         630|   -6.614511|   -5.136166|   -5.150667|   -6.155558|
|         631|   -6.617485|   -5.136883|   -5.148788|   -6.158856|
|         632|   -6.620378|   -5.137009|   -5.147074|   -6.162187|
|         633|   -6.623295|   -5.136501|   -5.145660|   -6.165557|
|         634|   -6.626337|   -5.135340|   -5.144652|   -6.168959|
|         635|   -6.629587|   -5.133537|   -5.144113|   -6.172389|
|         636|   -6.633067|   -5.131132|   -5.144070|   -6.175836|
|         637|   -6.636772|   -5.128190|   -5.144511|   -6.179306|
|         638|   -6.640662|   -5.124799|   -5.145380|   -6.182795|
|         639|   -6.644657|   -5.121060|   -5.146568|   -6.186301|
|         640|   -6.648681|   -5.117077|   -5.148029|   -6.189819|
|         641|   -6.652614|   -5.112958|   -5.149640|   -6.193329|
|         642|   -6.656327|   -5.108800|   -5.151272|   -6.196843|
|         643|   -6.659714|   -5.104685|   -5.152795|   -6.200331|
|         644|   -6.662653|   -5.100682|   -5.154089|   -6.203807|
|         645|   -6.665044|   -5.096839|   -5.155059|   -6.207273|
|         646|   -6.666858|   -5.093189|   -5.155637|   -6.210714|
|         647|   -6.668095|   -5.089747|   -5.155787|   -6.214130|
|         648|   -6.668783|   -5.086514|   -5.155518|   -6.217521|
|         649|   -6.668984|   -5.083482|   -5.154874|   -6.220908|
|         650|   -6.668814|   -5.080630|   -5.153928|   -6.224309|
|         651|   -6.668391|   -5.077933|   -5.152785|   -6.227735|
|         652|   -6.667865|   -5.075361|   -5.151553|   -6.231181|
|         653|   -6.667372|   -5.072886|   -5.150350|   -6.234659|
|         654|   -6.667028|   -5.070480|   -5.149289|   -6.238183|
|         655|   -6.666949|   -5.068111|   -5.148460|   -6.241750|
|         656|   -6.667229|   -5.065753|   -5.147940|   -6.245356|
|         657|   -6.667908|   -5.063383|   -5.147791|   -6.249076|
|         658|   -6.669071|   -5.060983|   -5.148052|   -6.252739|
|         659|   -6.670727|   -5.058542|   -5.148761|   -6.256378|
|         660|   -6.672870|   -5.056055|   -5.149926|   -6.259965|
|         661|   -6.675535|   -5.053518|   -5.151544|   -6.263542|
|         662|   -6.678688|   -5.050932|   -5.153614|   -6.267176|
|         663|   -6.682327|   -5.048305|   -5.156116|   -6.270897|
|         664|   -6.686489|   -5.045648|   -5.159037|   -6.274634|
|         665|   -6.691168|   -5.042978|   -5.162363|   -6.278358|
|         666|   -6.696315|   -5.040308|   -5.166080|   -6.281993|
|         667|   -6.701873|   -5.037642|   -5.170177|   -6.285505|
|         668|   -6.707747|   -5.034990|   -5.174653|   -6.288996|
|         669|   -6.713915|   -5.032353|   -5.179512|   -6.292470|
|         670|   -6.720463|   -5.029738|   -5.184766|   -6.295898|
|         671|   -6.727430|   -5.027155|   -5.190438|   -6.299265|
|         672|   -6.734816|   -5.024615|   -5.196542|   -6.302578|
|         673|   -6.742620|   -5.022127|   -5.203084|   -6.305799|
|         674|   -6.750847|   -5.019700|   -5.210074|   -6.308936|
|         675|   -6.759502|   -5.017339|   -5.217517|   -6.311992|
|         676|   -6.768601|   -5.015050|   -5.225418|   -6.314992|
|         677|   -6.778161|   -5.012834|   -5.233782|   -6.317927|
|         678|   -6.788203|   -5.010693|   -5.242611|   -6.320793|
|         679|   -6.798751|   -5.008629|   -5.251906|   -6.323584|
|         680|   -6.809834|   -5.006641|   -5.261666|   -6.326299|
|         681|   -6.821472|   -5.004731|   -5.271885|   -6.328936|
|         682|   -6.833704|   -5.002900|   -5.282553|   -6.331569|
|         683|   -6.846488|   -5.001146|   -5.293661|   -6.334177|
|         684|   -6.859883|   -4.999469|   -5.305191|   -6.336708|
|         685|   -6.873893|   -4.997868|   -5.317130|   -6.339249|
|         686|   -6.888565|   -4.996347|   -5.329449|   -6.341780|
|         687|   -6.903793|   -4.994905|   -5.342115|   -6.344321|
|         688|   -6.919610|   -4.993544|   -5.355088|   -6.346911|
|         689|   -6.936022|   -4.992268|   -5.368220|   -6.349462|
|         690|   -6.952931|   -4.991078|   -5.381433|   -6.352192|
|         691|   -6.970243|   -4.989980|   -5.394745|   -6.355037|
|         692|   -6.987835|   -4.988981|   -5.408055|   -6.357773|
|         693|   -7.005688|   -4.988084|   -5.421249|   -6.360420|
|         694|   -7.023390|   -4.987299|   -5.434212|   -6.362907|
|         695|   -7.040755|   -4.986630|   -5.446780|   -6.365270|
|         696|   -7.057451|   -4.986082|   -5.458773|   -6.367712|
|         697|   -7.073138|   -4.985661|   -5.470021|   -6.370371|
|         698|   -7.087392|   -4.985369|   -5.480371|   -6.372955|
|         699|   -7.099890|   -4.985207|   -5.489650|   -6.375165|
|         700|   -7.110205|   -4.985175|   -5.497727|   -6.377650|
|         701|   -7.117821|   -4.985271|   -5.504497|   -6.380058|
|         702|   -7.122881|   -4.985486|   -5.509870|   -6.382122|
|         703|   -7.125145|   -4.985813|   -5.513844|   -6.383893|
|         704|   -7.124526|   -4.986240|   -5.516447|   -6.385940|
|         705|   -7.121403|   -4.986755|   -5.517748|   -6.387915|
|         706|   -7.116138|   -4.987341|   -5.517887|   -6.389858|
|         707|   -7.109054|   -4.987983|   -5.517024|   -6.391781|
|         708|   -7.100543|   -4.988660|   -5.515341|   -6.394037|
|         709|   -7.091086|   -4.989355|   -5.513022|   -6.395702|
|         710|   -7.081072|   -4.990050|   -5.510243|   -6.396617|
|         711|   -7.070783|   -4.990730|   -5.507186|   -6.397355|
|         712|   -7.060306|   -4.991378|   -5.503991|   -6.399082|
|         713|   -7.050184|   -4.991984|   -5.500773|   -6.400177|
|         714|   -7.040390|   -4.992541|   -5.497652|   -6.400906|
|         715|   -7.031015|   -4.993045|   -5.494687|   -6.401569|
|         716|   -7.022135|   -4.993500|   -5.491915|   -6.402741|
|         717|   -7.013779|   -4.993910|   -5.489347|   -6.404129|
|         718|   -7.005946|   -4.994288|   -5.486980|   -6.404840|
|         719|   -6.998573|   -4.994648|   -5.484772|   -6.404925|
|         720|   -6.991614|   -4.995010|   -5.482681|   -6.405219|
|         721|   -6.985002|   -4.995393|   -5.480650|   -6.405397|
|         722|   -6.978704|   -4.995821|   -5.478612|   -6.405594|
|         723|   -6.972595|   -4.996317|   -5.476506|   -6.406205|
|         724|   -6.966639|   -4.996905|   -5.474257|   -6.406565|
|         725|   -6.960761|   -4.997605|   -5.471798|   -6.406466|
|         726|   -6.954885|   -4.998440|   -5.469085|   -6.405927|
|         727|   -6.948953|   -4.999428|   -5.466097|   -6.404979|
|         728|   -6.942923|   -5.000583|   -5.462807|   -6.403645|
|         729|   -6.936769|   -5.001918|   -5.459212|   -6.401929|
|         730|   -6.930476|   -5.003441|   -5.455319|   -6.399834|
|         731|   -6.924032|   -5.005157|   -5.451152|   -6.398041|
|         732|   -6.917438|   -5.007068|   -5.446744|   -6.396206|
|         733|   -6.910698|   -5.009169|   -5.442136|   -6.393930|
|         734|   -6.903818|   -5.011451|   -5.437378|   -6.391139|
|         735|   -6.896807|   -5.013908|   -5.432519|   -6.387806|
|         736|   -6.889684|   -5.016528|   -5.427607|   -6.383906|
|         737|   -6.882465|   -5.019299|   -5.422686|   -6.379413|
|         738|   -6.875160|   -5.022210|   -5.417798|   -6.374305|
|         739|   -6.867775|   -5.025249|   -5.412976|   -6.368559|
|         740|   -6.860311|   -5.028404|   -5.408251|   -6.362243|
|         741|   -6.852773|   -5.031662|   -5.403646|   -6.355550|
|         742|   -6.845143|   -5.035013|   -5.399175|   -6.348122|
|         743|   -6.837415|   -5.038445|   -5.394849|   -6.339960|
|         744|   -6.829561|   -5.041941|   -5.390663|   -6.331105|
|         745|   -6.821571|   -5.045484|   -5.386620|   -6.321742|
|         746|   -6.813436|   -5.049053|   -5.382720|   -6.311743|
|         747|   -6.805124|   -5.052631|   -5.378960|   -6.301166|
|         748|   -6.796611|   -5.056202|   -5.375332|   -6.290041|
|         749|   -6.787864|   -5.059744|   -5.371826|   -6.278362|
|         750|   -6.778861|   -5.063239|   -5.368434|   -6.266174|
|         751|   -6.769574|   -5.066667|   -5.365147|   -6.253539|
|         752|   -6.759978|   -5.070006|   -5.361956|   -6.240536|
|         753|   -6.750056|   -5.073234|   -5.358847|   -6.227240|
|         754|   -6.739794|   -5.076330|   -5.355779|   -6.213728|
|         755|   -6.729199|   -5.079273|   -5.352690|   -6.200083|
|         756|   -6.718266|   -5.082047|   -5.349679|   -6.186487|
|         757|   -6.706998|   -5.084636|   -5.346709|   -6.172972|
|         758|   -6.695414|   -5.087022|   -5.343790|   -6.159565|
|         759|   -6.683543|   -5.089192|   -5.340921|   -6.146349|
|         760|   -6.671425|   -5.091138|   -5.338116|   -6.133406|
|         761|   -6.659106|   -5.092859|   -5.335375|   -6.120815|
|         762|   -6.646628|   -5.094361|   -5.332705|   -6.108657|
|         763|   -6.634047|   -5.095658|   -5.330111|   -6.096997|
|         764|   -6.621436|   -5.096772|   -5.327604|   -6.085892|
|         765|   -6.608861|   -5.097735|   -5.325188|   -6.075382|
|         766|   -6.596405|   -5.098585|   -5.322878|   -6.065493|
|         767|   -6.584164|   -5.099373|   -5.320689|   -6.056251|
|         768|   -6.572256|   -5.100160|   -5.318640|   -6.047680|
|         769|   -6.560839|   -5.101021|   -5.316743|   -6.039808|
|         770|   -6.550166|   -5.102054|   -5.315007|   -6.032691|
|         771|   -6.540639|   -5.103386|   -5.313454|   -6.026426|
|         772|   -6.532339|   -5.105135|   -5.312082|   -6.021064|
|         773|   -6.525248|   -5.107333|   -5.310896|   -6.016602|
|         774|   -6.519163|   -5.109946|   -5.309875|   -6.012959|
|         775|   -6.513858|   -5.112902|   -5.308984|   -6.010004|
|         776|   -6.509153|   -5.116142|   -5.308200|   -6.007649|
|         777|   -6.504915|   -5.119620|   -5.307518|   -6.005820|
|         778|   -6.501040|   -5.123298|   -5.306935|   -6.004453|
|         779|   -6.497437|   -5.127139|   -5.306450|   -6.003474|
|         780|   -6.494033|   -5.131106|   -5.306060|   -6.002818|
|         781|   -6.490759|   -5.135165|   -5.305770|   -6.002432|
|         782|   -6.487553|   -5.139277|   -5.305597|   -6.002278|
|         783|   -6.484385|   -5.143397|   -5.305566|   -6.002318|
|         784|   -6.481250|   -5.147480|   -5.305705|   -6.002516|
|         785|   -6.478148|   -5.151487|   -5.306010|   -6.002840|
|         786|   -6.475171|   -5.155370|   -5.304660|   -6.003277|
|         787|   -6.472210|   -5.159086|   -5.303452|   -6.003791|
|         788|   -6.469219|   -5.162652|   -5.302386|   -6.004360|
|         789|   -6.466309|   -5.166076|   -5.301557|   -6.004964|
|         790|   -6.463427|   -5.169337|   -5.300900|   -6.005587|
|         791|   -6.460661|   -5.172405|   -5.298634|   -6.006220|
|         792|   -6.457941|   -5.175244|   -5.295931|   -6.006851|
|         793|   -6.455204|   -5.177861|   -5.293419|   -6.007490|
|         794|   -6.452606|   -5.180286|   -5.291085|   -6.008121|
|         795|   -6.450496|   -5.182458|   -5.280535|   -6.008768|
|         796|   -6.448392|   -5.184328|   -5.269583|   -6.009405|
|         797|   -6.446006|   -5.186003|   -5.258744|   -6.010012|
|         798|   -6.444015|   -5.187640|   -5.248338|   -6.010578|
|         799|   -6.442161|   -5.189236|   -5.238180|   -6.011132|
|         800|   -6.440459|   -5.190765|   -5.228398|   -6.011659|
|         801|   -6.438920|   -5.192206|   -5.219003|   -6.012162|
|         802|   -6.437536|   -5.193542|   -5.209968|   -6.012617|
|         803|   -6.436311|   -5.194761|   -5.201295|   -6.013002|
|         804|   -6.435219|   -5.195855|   -5.192964|   -6.013305|
|         805|   -6.434233|   -5.196817|   -5.184951|   -6.013530|
|         806|   -6.433329|   -5.197647|   -5.177232|   -6.013687|
|         807|   -6.432498|   -5.198352|   -5.169793|   -6.013790|
|         808|   -6.431741|   -5.198938|   -5.162628|   -6.013852|
|         809|   -6.431054|   -5.199413|   -5.155726|   -6.013874|
|         810|   -6.430447|   -5.199791|   -5.149095|   -6.013841|
|         811|   -6.429930|   -5.200076|   -5.142735|   -6.013743|
|         812|   -6.429512|   -5.200283|   -5.136652|   -6.013599|
|         813|   -6.429190|   -5.200396|   -5.130831|   -6.013409|
|         814|   -6.428966|   -5.200438|   -5.125281|   -6.013168|
|         815|   -6.428832|   -5.200398|   -5.119991|   -6.012872|
|         816|   -6.428789|   -5.200282|   -5.114947|   -6.012521|
|         817|   -6.428812|   -5.200036|   -5.110129|   -6.012122|
|         818|   -6.428907|   -5.199762|   -5.105537|   -6.011683|
|         819|   -6.429069|   -5.199368|   -5.101143|   -6.011205|
|         820|   -6.429292|   -5.198883|   -5.096940|   -6.010697|
|         821|   -6.429576|   -5.198305|   -5.092908|   -6.010167|
|         822|   -6.429926|   -5.197615|   -5.089050|   -6.009615|
|         823|   -6.430349|   -5.196841|   -5.085368|   -6.009057|
|         824|   -6.430852|   -5.195966|   -5.081855|   -6.008492|
|         825|   -6.431445|   -5.194983|   -5.078526|   -6.007928|
|         826|   -6.432136|   -5.193899|   -5.075387|   -6.007368|
|         827|   -6.432929|   -5.192711|   -5.072433|   -6.006814|
|         828|   -6.433827|   -5.191404|   -5.069673|   -6.006272|
|         829|   -6.434830|   -5.189972|   -5.067106|   -6.005746|
|         830|   -6.435942|   -5.188410|   -5.064727|   -6.005243|
|         831|   -6.437160|   -5.186706|   -5.062536|   -6.004765|
|         832|   -6.438486|   -5.184848|   -5.060533|   -6.004317|
|         833|   -6.439920|   -5.182832|   -5.058716|   -6.003905|
|         834|   -6.441463|   -5.180656|   -5.057081|   -6.003531|
|         835|   -6.443118|   -5.178315|   -5.055632|   -6.003191|
|         836|   -6.444887|   -5.175801|   -5.054376|   -6.002887|
|         837|   -6.446773|   -5.173115|   -5.053324|   -6.002616|
|         838|   -6.448774|   -5.170253|   -5.052484|   -6.002374|
|         839|   -6.450884|   -5.167212|   -5.051859|   -6.002159|
|         840|   -6.453102|   -5.163991|   -5.051456|   -6.001970|
|         841|   -6.455418|   -5.160591|   -5.051278|   -6.001801|
|         842|   -6.457830|   -5.157015|   -5.051330|   -6.001648|
|         843|   -6.460331|   -5.153270|   -5.051617|   -6.001508|
|         844|   -6.462910|   -5.149356|   -5.052144|   -6.001379|
|         845|   -6.465563|   -5.145269|   -5.052917|   -6.001247|
|         846|   -6.468284|   -5.141005|   -5.053939|   -6.001107|
|         847|   -6.471072|   -5.136578|   -5.055223|   -6.000952|
|         848|   -6.473922|   -5.131988|   -5.056783|   -6.000773|
|         849|   -6.476850|   -5.127224|   -5.058628|   -6.000559|
|         850|   -6.479857|   -5.122296|   -5.060764|   -6.000315|
|         851|   -6.482946|   -5.117208|   -5.063197|   -6.000052|
|         852|   -6.486100|   -5.111962|   -5.065915|   -5.999763|
|         853|   -6.489376|   -5.106571|   -5.068908|   -5.999440|
|         854|   -6.492748|   -5.101066|   -5.072175|   -5.999078|
|         855|   -6.496212|   -5.095458|   -5.075724|   -5.998686|
|         856|   -6.499760|   -5.089762|   -5.079561|   -5.998294|
|         857|   -6.503446|   -5.083986|   -5.083690|   -5.997860|
|         858|   -6.507230|   -5.078153|   -5.088108|   -5.997406|
|         859|   -6.511140|   -5.072289|   -5.092804|   -5.996919|
|         860|   -6.515142|   -5.066379|   -5.097750|   -5.996424|
|         861|   -6.519204|   -5.060480|   -5.102925|   -5.995928|
|         862|   -6.523474|   -5.054571|   -5.108326|   -5.995386|
|         863|   -6.527793|   -5.048658|   -5.113875|   -5.994846|
|         864|   -6.532314|   -5.042735|   -5.119576|   -5.994311|
|         865|   -6.536949|   -5.036802|   -5.125385|   -5.993817|
|         866|   -6.541455|   -5.030887|   -5.131239|   -5.993317|
|         867|   -6.546441|   -5.024953|   -5.137068|   -5.992807|
|         868|   -6.551347|   -5.018983|   -5.142819|   -5.992307|
|         869|   -6.556290|   -5.013037|   -5.148407|   -5.991764|
|         870|   -6.561629|   -5.007181|   -5.153722|   -5.991184|
|         871|   -6.566876|   -5.001347|   -5.158707|   -5.990575|
|         872|   -6.572181|   -4.995479|   -5.163268|   -5.989929|
|         873|   -6.577532|   -4.989549|   -5.167208|   -5.989217|
|         874|   -6.583119|   -4.983625|   -5.170594|   -5.988466|
|         875|   -6.588542|   -4.977732|   -5.173402|   -5.987666|
|         876|   -6.594072|   -4.971847|   -5.175454|   -5.986748|
|         877|   -6.599675|   -4.965955|   -5.176781|   -5.985721|
|         878|   -6.605225|   -4.960068|   -5.177314|   -5.984544|
|         879|   -6.610642|   -4.954208|   -5.176979|   -5.983220|
|         880|   -6.616083|   -4.948380|   -5.175770|   -5.981802|
|         881|   -6.621453|   -4.942599|   -5.173776|   -5.980238|
|         882|   -6.626739|   -4.936905|   -5.171054|   -5.978544|
|         883|   -6.631808|   -4.931318|   -5.167648|   -5.976742|
|         884|   -6.636733|   -4.925851|   -5.163651|   -5.974830|
|         885|   -6.641518|   -4.920517|   -5.159161|   -5.972826|
|         886|   -6.646045|   -4.915332|   -5.154291|   -5.970758|
|         887|   -6.650346|   -4.910313|   -5.149123|   -5.968609|
|         888|   -6.654438|   -4.905465|   -5.143704|   -5.966382|
|         889|   -6.658248|   -4.900782|   -5.138096|   -5.964092|
|         890|   -6.661787|   -4.896254|   -5.132321|   -5.961745|
|         891|   -6.665009|   -4.891868|   -5.126401|   -5.959362|
|         892|   -6.667867|   -4.887614|   -5.120338|   -5.956960|
|         893|   -6.670458|   -4.883484|   -5.114127|   -5.954546|
|         894|   -6.672733|   -4.879468|   -5.107770|   -5.952142|
|         895|   -6.674659|   -4.875543|   -5.101251|   -5.949752|
|         896|   -6.676347|   -4.871707|   -5.094563|   -5.947381|
|         897|   -6.677651|   -4.867955|   -5.087716|   -5.945050|
|         898|   -6.678619|   -4.864280|   -5.080704|   -5.942771|
|         899|   -6.679292|   -4.860682|   -5.073533|   -5.940539|
|         900|   -6.679668|   -4.857174|   -5.066207|   -5.938376|
|         901|   -6.679732|   -4.853742|   -5.058734|   -5.936280|
|         902|   -6.679516|   -4.850365|   -5.051105|   -5.934241|
|         903|   -6.678958|   -4.847041|   -5.043335|   -5.932252|
|         904|   -6.678031|   -4.843756|   -5.035418|   -5.930307|
|         905|   -6.676960|   -4.840503|   -5.027356|   -5.928384|
|         906|   -6.675513|   -4.837279|   -5.019150|   -5.926469|
|         907|   -6.673811|   -4.834075|   -5.010816|   -5.924544|
|         908|   -6.671871|   -4.830886|   -5.002370|   -5.922637|
|         909|   -6.669584|   -4.827710|   -4.993823|   -5.920756|
|         910|   -6.666998|   -4.824523|   -4.985188|   -5.918931|
|         911|   -6.663899|   -4.821334|   -4.976476|   -5.917152|
|         912|   -6.660651|   -4.818140|   -4.967700|   -5.915404|
|         913|   -6.657314|   -4.814934|   -4.958880|   -5.913706|
|         914|   -6.653668|   -4.811722|   -4.950033|   -5.912063|
|         915|   -6.649880|   -4.808504|   -4.941179|   -5.910508|
|         916|   -6.645839|   -4.805283|   -4.932382|   -5.909017|
|         917|   -6.641573|   -4.802059|   -4.923673|   -5.907599|
|         918|   -6.637110|   -4.798856|   -4.915083|   -5.906240|
|         919|   -6.632417|   -4.795663|   -4.906656|   -5.905013|
|         920|   -6.627521|   -4.792476|   -4.898399|   -5.903921|
|         921|   -6.622588|   -4.789314|   -4.890320|   -5.902941|
|         922|   -6.617516|   -4.786132|   -4.882428|   -5.902063|
|         923|   -6.612224|   -4.782896|   -4.874713|   -5.901307|
|         924|   -6.606580|   -4.779592|   -4.867197|   -5.900669|
|         925|   -6.600857|   -4.776166|   -4.859901|   -5.900155|
|         926|   -6.594799|   -4.772567|   -4.852855|   -5.899801|
|         927|   -6.588425|   -4.768823|   -4.846074|   -5.899557|
|         928|   -6.582280|   -4.764868|   -4.839575|   -5.899450|
|         929|   -6.575921|   -4.760673|   -4.833368|   -5.899406|
|         930|   -6.569748|   -4.756321|   -4.827445|   -5.899415|
|         931|   -6.564061|   -4.751680|   -4.821797|   -5.899435|
|         932|   -6.558699|   -4.747025|   -4.816398|   -5.899497|
|         933|   -6.554471|   -4.742450|   -4.811246|   -5.899580|
|         934|   -6.551161|   -4.737937|   -4.806261|   -5.899724|
|         935|   -6.548685|   -4.733824|   -4.801315|   -5.900028|
|         936|   -6.547190|   -4.730351|   -4.796167|   -5.900266|
|         937|   -6.547312|   -4.727366|   -4.790766|   -5.900582|
|         938|   -6.548573|   -4.724659|   -4.785211|   -5.901079|
|         939|   -6.550151|   -4.722874|   -4.779573|   -5.902302|
|         940|   -6.551251|   -4.722439|   -4.773853|   -5.904406|
|         941|   -6.551462|   -4.722989|   -4.768017|   -5.907183|
|         942|   -6.552286|   -4.723799|   -4.762098|   -5.910042|
|         943|   -6.554510|   -4.724277|   -4.756184|   -5.912063|
|         944|   -6.559188|   -4.724726|   -4.750364|   -5.913889|
|         945|   -6.562310|   -4.725870|   -4.744662|   -5.916432|
|         946|   -6.563487|   -4.727668|   -4.739080|   -5.919513|
|         947|   -6.564194|   -4.728986|   -4.733651|   -5.923007|
|         948|   -6.564863|   -4.728818|   -4.728456|   -5.926370|
|         949|   -6.565160|   -4.726958|   -4.723532|   -5.929224|
|         950|   -6.564882|   -4.723697|   -4.718810|   -5.931303|
|         951|   -6.563673|   -4.719515|   -4.714223|   -5.932689|
|         952|   -6.561726|   -4.714808|   -4.709660|   -5.933516|
|         953|   -6.559809|   -4.709848|   -4.705055|   -5.933867|
|         954|   -6.557912|   -4.704785|   -4.700426|   -5.933787|
|         955|   -6.556426|   -4.699668|   -4.695763|   -5.933355|
|         956|   -6.555207|   -4.694470|   -4.691026|   -5.933003|
|         957|   -6.553559|   -4.689150|   -4.686248|   -5.933344|
|         958|   -6.552153|   -4.683709|   -4.681482|   -5.934379|
|         959|   -6.552245|   -4.678179|   -4.676732|   -5.935835|
|         960|   -6.553666|   -4.672599|   -4.672032|   -5.937785|
|         961|   -6.555846|   -4.667044|   -4.667406|   -5.940285|
|         962|   -6.558721|   -4.661661|   -4.662798|   -5.943202|
|         963|   -6.562230|   -4.656583|   -4.658139|   -5.946290|
|         964|   -6.566801|   -4.651895|   -4.653403|   -5.949249|
|         965|   -6.572285|   -4.647620|   -4.648580|   -5.951989|
|         966|   -6.577498|   -4.643650|   -4.643678|   -5.954629|
|         967|   -6.581825|   -4.639886|   -4.638708|   -5.957181|
|         968|   -6.585483|   -4.636362|   -4.633681|   -5.959488|
|         969|   -6.588547|   -4.633108|   -4.628588|   -5.961440|
|         970|   -6.590979|   -4.630122|   -4.623440|   -5.963050|
|         971|   -6.592569|   -4.627383|   -4.618302|   -5.964401|
|         972|   -6.593092|   -4.624841|   -4.613261|   -5.965536|
|         973|   -6.592235|   -4.622409|   -4.608379|   -5.966469|
|         974|   -6.589594|   -4.619981|   -4.603692|   -5.967200|
|         975|   -6.585064|   -4.617529|   -4.599222|   -5.967722|
|         976|   -6.578704|   -4.615072|   -4.594969|   -5.968157|
[...]
|       14749|  -10.753291|   -9.191255|   -9.157918|   -6.930957|
|       14750|  -10.760995|   -9.193227|   -9.162034|   -6.930958|
|       14751|  -10.768371|   -9.199050|   -9.173289|   -6.930958|
|       14752|  -10.775596|   -9.205118|   -9.185045|   -6.930958|
|       14753|  -10.782144|   -9.208664|   -9.192230|   -6.930958|
|       14754|  -10.787355|   -9.209070|   -9.195212|   -6.930958|
|       14755|  -10.791766|   -9.210077|   -9.198956|   -6.930958|
|       14756|  -10.796161|   -9.209643|   -9.200529|   -6.930958|
|       14757|  -10.798873|   -9.208805|   -9.198792|   -6.930958|
|       14758|  -10.801526|   -9.207091|   -9.197819|   -6.930958|
|       14759|  -10.803744|   -9.204738|   -9.196038|   -6.930958|
|       14760|  -10.804204|   -9.201720|   -9.191194|   -6.930958|
|       14761|  -10.802928|   -9.195260|   -9.184095|   -6.930959|
|       14762|  -10.797838|   -9.190003|   -9.173587|   -6.930959|
|       14763|  -10.794936|   -9.186707|   -9.166859|   -6.930959|
|       14764|  -10.794679|   -9.180618|   -9.158956|   -6.930959|
|       14765|  -10.789608|   -9.178785|   -9.157050|   -6.930959|
|       14766|  -10.787264|   -9.173968|   -9.150507|   -6.930959|
|       14767|  -10.781447|   -9.167151|   -9.139984|   -6.930959|
|       14768|  -10.775799|   -9.156663|   -9.128968|   -6.930959|
|       14769|  -10.767847|   -9.153811|   -9.127994|   -6.930959|
|       14770|  -10.765485|   -9.156874|   -9.130983|   -6.930959|
|       14771|  -10.767140|   -9.150652|   -9.122413|   -6.930959|
|       14772|  -10.755354|   -9.144412|   -9.113517|   -6.930959|
|       14773|  -10.746130|   -9.140672|   -9.103265|   -6.930959|
|       14774|  -10.743173|   -9.139774|   -9.104147|   -6.930959|
|       14775|  -10.742214|   -9.136069|   -9.099712|   -6.930959|
|       14776|  -10.734768|   -9.139271|   -9.101940|   -6.930959|
|       14777|  -10.728795|   -9.134666|   -9.091897|   -6.930959|
|       14778|  -10.721599|   -9.126874|   -9.079659|   -6.930959|
|       14779|  -10.713440|   -9.122293|   -9.072286|   -6.930959|
|       14780|  -10.710472|   -9.116558|   -9.064032|   -6.930959|
|       14781|  -10.708191|   -9.119003|   -9.070181|   -6.930959|
|       14782|  -10.707511|   -9.124587|   -9.073487|   -6.930959|
|       14783|  -10.705886|   -9.123317|   -9.068990|   -6.930959|
|       14784|  -10.701770|   -9.120539|   -9.059685|   -6.930959|
|       14785|  -10.694791|   -9.120674|   -9.060099|   -6.930959|
|       14786|  -10.689858|   -9.116654|   -9.055876|   -6.930959|
|       14787|  -10.686633|   -9.109987|   -9.048377|   -6.930960|
|       14788|  -10.683616|   -9.114698|   -9.058152|   -6.930960|
|       14789|  -10.685075|   -9.112648|   -9.054446|   -6.930960|
|       14790|  -10.682214|   -9.110475|   -9.057662|   -6.930960|
|       14791|  -10.685985|   -9.123693|   -9.071172|   -6.930960|
|       14792|  -10.693553|   -9.131410|   -9.078961|   -6.930960|
|       14793|  -10.698338|   -9.140152|   -9.091428|   -6.930960|
|       14794|  -10.707426|   -9.147044|   -9.099746|   -6.930960|
|       14795|  -10.713169|   -9.156290|   -9.114366|   -6.930960|
|       14796|  -10.722182|   -9.162394|   -9.122901|   -6.930960|
|       14797|  -10.730487|   -9.166297|   -9.128470|   -6.930960|
|       14798|  -10.738225|   -9.170751|   -9.135130|   -6.930960|
|       14799|  -10.745753|   -9.176116|   -9.144094|   -6.930960|
|       14800|  -10.753100|   -9.181333|   -9.151673|   -6.930960|
|       14801|  -10.760344|   -9.185390|   -9.159799|   -6.930960|
|       14802|  -10.768928|   -9.186529|   -9.163019|   -6.930960|
|       14803|  -10.776408|   -9.193349|   -9.177161|   -6.930960|
|       14804|  -10.783651|   -9.198927|   -9.187269|   -6.930960|
|       14805|  -10.790480|   -9.201304|   -9.193681|   -6.930960|
|       14806|  -10.795847|   -9.201358|   -9.195816|   -6.930960|
|       14807|  -10.800633|   -9.202250|   -9.199928|   -6.930960|
|       14808|  -10.805102|   -9.201727|   -9.200786|   -6.930960|
|       14809|  -10.807980|   -9.200099|   -9.197839|   -6.930960|
|       14810|  -10.810758|   -9.198396|   -9.197553|   -6.930960|
|       14811|  -10.812961|   -9.196601|   -9.195848|   -6.930960|
|       14812|  -10.813501|   -9.192742|   -9.189691|   -6.930960|
|       14813|  -10.811332|   -9.185411|   -9.181243|   -6.930960|
|       14814|  -10.805864|   -9.181616|   -9.171832|   -6.930960|
|       14815|  -10.804761|   -9.177469|   -9.164951|   -6.930960|
|       14816|  -10.802761|   -9.172481|   -9.158804|   -6.930960|
|       14817|  -10.798584|   -9.170068|   -9.156004|   -6.930960|
|       14818|  -10.794977|   -9.165003|   -9.148395|   -6.930960|
|       14819|  -10.789026|   -9.156112|   -9.135813|   -6.930960|
|       14820|  -10.782788|   -9.152140|   -9.128668|   -6.930960|
|       14821|  -10.779473|   -9.155188|   -9.128729|   -6.930960|
|       14822|  -10.783883|   -9.159881|   -9.132260|   -6.930960|
|       14823|  -10.785828|   -9.152589|   -9.122759|   -6.930960|
|       14824|  -10.772765|   -9.147944|   -9.113747|   -6.930960|
|       14825|  -10.766484|   -9.143512|   -9.105166|   -6.930960|
|       14826|  -10.763150|   -9.144377|   -9.108343|   -6.930960|
|       14827|  -10.761668|   -9.141443|   -9.104183|   -6.930960|
|       14828|  -10.751395|   -9.143414|   -9.103466|   -6.930960|
|       14829|  -10.746312|   -9.136851|   -9.091592|   -6.930959|
|       14830|  -10.737149|   -9.129268|   -9.079263|   -6.930959|
|       14831|  -10.730152|   -9.124891|   -9.074244|   -6.930959|
|       14832|  -10.727997|   -9.120932|   -9.067992|   -6.930959|
|       14833|  -10.725627|   -9.125718|   -9.075101|   -6.930959|
|       14834|  -10.724437|   -9.128955|   -9.075887|   -6.930959|
|       14835|  -10.722105|   -9.126776|   -9.069547|   -6.930959|
|       14836|  -10.716905|   -9.125594|   -9.063120|   -6.930959|
|       14837|  -10.709663|   -9.123911|   -9.061208|   -6.930959|
|       14838|  -10.704709|   -9.118903|   -9.057167|   -6.930959|
|       14839|  -10.700753|   -9.116332|   -9.055178|   -6.930959|
|       14840|  -10.699786|   -9.118468|   -9.059378|   -6.930959|
|       14841|  -10.698972|   -9.115641|   -9.057566|   -6.930959|
|       14842|  -10.698558|   -9.118268|   -9.064717|   -6.930959|
|       14843|  -10.703990|   -9.130294|   -9.075988|   -6.930959|
|       14844|  -10.710391|   -9.139417|   -9.086351|   -6.930959|
|       14845|  -10.717472|   -9.147362|   -9.097166|   -6.930959|
|       14846|  -10.726079|   -9.155756|   -9.108136|   -6.930959|
|       14847|  -10.733176|   -9.163906|   -9.120889|   -6.930959|
|       14848|  -10.742416|   -9.169412|   -9.128469|   -6.930959|
|       14849|  -10.751187|   -9.172937|   -9.133236|   -6.930959|
|       14850|  -10.759110|   -9.178357|   -9.141834|   -6.930959|
|       14851|  -10.767440|   -9.184480|   -9.150830|   -6.930959|
|       14852|  -10.775417|   -9.189464|   -9.158576|   -6.930959|
|       14853|  -10.783432|   -9.192781|   -9.165411|   -6.930959|
|       14854|  -10.792582|   -9.195731|   -9.171334|   -6.930958|
|       14855|  -10.801092|   -9.205860|   -9.185719|   -6.930958|
|       14856|  -10.811422|   -9.212588|   -9.195262|   -6.930958|
|       14857|  -10.820212|   -9.214772|   -9.201139|   -6.930958|
|       14858|  -10.826868|   -9.215643|   -9.204169|   -6.930958|
|       14859|  -10.832650|   -9.216096|   -9.207528|   -6.930958|
|       14860|  -10.836738|   -9.215505|   -9.207350|   -6.930958|
|       14861|  -10.839570|   -9.213595|   -9.204986|   -6.930958|
|       14862|  -10.842072|   -9.211355|   -9.203700|   -6.930958|
|       14863|  -10.843141|   -9.209336|   -9.201058|   -6.930958|
|       14864|  -10.842770|   -9.203926|   -9.194584|   -6.930958|
|       14865|  -10.838035|   -9.196300|   -9.183812|   -6.930958|
|       14866|  -10.831893|   -9.193269|   -9.175629|   -6.930958|
|       14867|  -10.832003|   -9.187800|   -9.167874|   -6.930958|
|       14868|  -10.827030|   -9.184327|   -9.163855|   -6.930958|
|       14869|  -10.823618|   -9.180903|   -9.159269|   -6.930957|
|       14870|  -10.817505|   -9.176171|   -9.150692|   -6.930957|
|       14871|  -10.811337|   -9.165905|   -9.138214|   -6.930957|
|       14872|  -10.803138|   -9.159882|   -9.133182|   -6.930957|
|       14873|  -10.796562|   -9.159242|   -9.133123|   -6.930957|
|       14874|  -10.796904|   -9.159907|   -9.132413|   -6.930957|
|       14875|  -10.790631|   -9.151755|   -9.121992|   -6.930957|
|       14876|  -10.776041|   -9.147452|   -9.110512|   -6.930957|
|       14877|  -10.771188|   -9.142864|   -9.104563|   -6.930957|
|       14878|  -10.767587|   -9.143937|   -9.107950|   -6.930957|
|       14879|  -10.765269|   -9.143845|   -9.105844|   -6.930957|
|       14880|  -10.754435|   -9.143264|   -9.101537|   -6.930957|
|       14881|  -10.749166|   -9.135620|   -9.088700|   -6.930957|
|       14882|  -10.738811|   -9.128396|   -9.076445|   -6.930956|
|       14883|  -10.732326|   -9.124690|   -9.072658|   -6.930956|
|       14884|  -10.731074|   -9.122228|   -9.069656|   -6.930956|
|       14885|  -10.728989|   -9.129000|   -9.076906|   -6.930956|
|       14886|  -10.727200|   -9.130012|   -9.075339|   -6.930956|
|       14887|  -10.723228|   -9.127497|   -9.067553|   -6.930956|
|       14888|  -10.717341|   -9.127520|   -9.063632|   -6.930956|
|       14889|  -10.710054|   -9.124540|   -9.060293|   -6.930956|
|       14890|  -10.705038|   -9.118837|   -9.055537|   -6.930956|
|       14891|  -10.700843|   -9.120373|   -9.059432|   -6.930956|
|       14892|  -10.701582|   -9.119491|   -9.057495|   -6.930956|
|       14893|  -10.697315|   -9.116221|   -9.058540|   -6.930956|
|       14894|  -10.699810|   -9.125514|   -9.070027|   -6.930956|
|       14895|  -10.707021|   -9.134441|   -9.077769|   -6.930956|
|       14896|  -10.711580|   -9.144610|   -9.090690|   -6.930956|
|       14897|  -10.720732|   -9.151909|   -9.099560|   -6.930956|
|       14898|  -10.727255|   -9.161711|   -9.113127|   -6.930956|
|       14899|  -10.735840|   -9.169124|   -9.123950|   -6.930955|
|       14900|  -10.744628|   -9.174025|   -9.130625|   -6.930955|
|       14901|  -10.752859|   -9.177108|   -9.134649|   -6.930955|
|       14902|  -10.760101|   -9.182963|   -9.144396|   -6.930955|
|       14903|  -10.768019|   -9.189727|   -9.153183|   -6.930955|
|       14904|  -10.775776|   -9.194826|   -9.161481|   -6.930955|
|       14905|  -10.784047|   -9.197286|   -9.166316|   -6.930955|
|       14906|  -10.792388|   -9.202574|   -9.176235|   -6.930955|
|       14907|  -10.800283|   -9.209056|   -9.188974|   -6.930955|
|       14908|  -10.807505|   -9.213250|   -9.196698|   -6.930955|
|       14909|  -10.813355|   -9.214086|   -9.200351|   -6.930955|
|       14910|  -10.818227|   -9.215122|   -9.203786|   -6.930955|
|       14911|  -10.823047|   -9.214922|   -9.205776|   -6.930955|
|       14912|  -10.825956|   -9.214037|   -9.204218|   -6.930955|
|       14913|  -10.828404|   -9.212442|   -9.202980|   -6.930954|
|       14914|  -10.830563|   -9.210120|   -9.201192|   -6.930954|
|       14915|  -10.830949|   -9.207612|   -9.196967|   -6.930954|
|       14916|  -10.829705|   -9.201089|   -9.190020|   -6.930954|
|       14917|  -10.823661|   -9.194657|   -9.178595|   -6.930954|
|       14918|  -10.819005|   -9.191687|   -9.171869|   -6.930954|
|       14919|  -10.818988|   -9.185399|   -9.163159|   -6.930954|
|       14920|  -10.812797|   -9.183654|   -9.161243|   -6.930954|
|       14921|  -10.810156|   -9.179090|   -9.155026|   -6.930954|
|       14922|  -10.803420|   -9.172916|   -9.144986|   -6.930953|
|       14923|  -10.797068|   -9.162392|   -9.133534|   -6.930953|
|       14924|  -10.788468|   -9.158413|   -9.130863|   -6.930953|
|       14925|  -10.784205|   -9.160959|   -9.133785|   -6.930953|
|       14926|  -10.786192|   -9.156182|   -9.126587|   -6.930953|
|       14927|  -10.774347|   -9.149309|   -9.117353|   -6.930953|
|       14928|  -10.762644|   -9.145758|   -9.106367|   -6.930953|
|       14929|  -10.759241|   -9.143889|   -9.105913|   -6.930953|
|       14930|  -10.757575|   -9.141522|   -9.103134|   -6.930953|
|       14931|  -10.750991|   -9.144008|   -9.104397|   -6.930953|
|       14932|  -10.742920|   -9.140590|   -9.095867|   -6.930953|
|       14933|  -10.736178|   -9.132637|   -9.083261|   -6.930952|
|       14934|  -10.726503|   -9.127317|   -9.074255|   -6.930952|
|       14935|  -10.722359|   -9.121965|   -9.066860|   -6.930952|
|       14936|  -10.720101|   -9.123001|   -9.070683|   -6.930952|
|       14937|  -10.718978|   -9.129576|   -9.075493|   -6.930952|
|       14938|  -10.716972|   -9.128853|   -9.071722|   -6.930952|
|       14939|  -10.712603|   -9.126070|   -9.062604|   -6.930952|
|       14940|  -10.705638|   -9.126595|   -9.061929|   -6.930952|
|       14941|  -10.699716|   -9.122813|   -9.057922|   -6.930952|
|       14942|  -10.696084|   -9.116285|   -9.051132|   -6.930952|
|       14943|  -10.692315|   -9.120573|   -9.059695|   -6.930951|
|       14944|  -10.694071|   -9.118555|   -9.055589|   -6.930951|
|       14945|  -10.689889|   -9.115448|   -9.058049|   -6.930951|
|       14946|  -10.693167|   -9.128629|   -9.071750|   -6.930951|
|       14947|  -10.700978|   -9.137573|   -9.078719|   -6.930951|
|       14948|  -10.705582|   -9.148053|   -9.092216|   -6.930951|
|       14949|  -10.715387|   -9.155569|   -9.100321|   -6.930951|
|       14950|  -10.721176|   -9.166010|   -9.115533|   -6.930951|
|       14951|  -10.730640|   -9.172929|   -9.124742|   -6.930951|
|       14952|  -10.739270|   -9.177335|   -9.130741|   -6.930951|
|       14953|  -10.747249|   -9.181674|   -9.136650|   -6.930951|
|       14954|  -10.754760|   -9.187219|   -9.145704|   -6.930950|
|       14955|  -10.762122|   -9.193215|   -9.153686|   -6.930950|
|       14956|  -10.769485|   -9.197978|   -9.162112|   -6.930950|
|       14957|  -10.777953|   -9.199583|   -9.165635|   -6.930950|
|       14958|  -10.785571|   -9.206495|   -9.178729|   -6.930950|
|       14959|  -10.793034|   -9.212660|   -9.189707|   -6.930950|
|       14960|  -10.799930|   -9.215799|   -9.196502|   -6.930950|
|       14961|  -10.805344|   -9.215922|   -9.198682|   -6.930950|
|       14962|  -10.809967|   -9.217186|   -9.203021|   -6.930950|
|       14963|  -10.814572|   -9.216778|   -9.204101|   -6.930950|
|       14964|  -10.817317|   -9.215502|   -9.201658|   -6.930949|
|       14965|  -10.819952|   -9.213598|   -9.201046|   -6.930949|
|       14966|  -10.821937|   -9.211326|   -9.199169|   -6.930949|
|       14967|  -10.822029|   -9.207701|   -9.193342|   -6.930949|
|       14968|  -10.819809|   -9.200015|   -9.185179|   -6.930949|
|       14969|  -10.813699|   -9.195575|   -9.175270|   -6.930949|
|       14970|  -10.811526|   -9.191659|   -9.168257|   -6.930949|
|       14971|  -10.810047|   -9.185940|   -9.161232|   -6.930949|
|       14972|  -10.804998|   -9.183738|   -9.158725|   -6.930949|
|       14973|  -10.801625|   -9.178606|   -9.151487|   -6.930948|
|       14974|  -10.795293|   -9.170448|   -9.139731|   -6.930948|
|       14975|  -10.788661|   -9.160579|   -9.130163|   -6.930948|
|       14976|  -10.780260|   -9.158801|   -9.130025|   -6.930948|
|       14977|  -10.778970|   -9.162251|   -9.132755|   -6.930948|
|       14978|  -10.779413|   -9.154666|   -9.122730|   -6.930948|
|       14979|  -10.765751|   -9.149135|   -9.113821|   -6.930948|
|       14980|  -10.757915|   -9.144807|   -9.104057|   -6.930948|
|       14981|  -10.754399|   -9.145212|   -9.106502|   -6.930948|
|       14982|  -10.753253|   -9.141558|   -9.101729|   -6.930947|
|       14983|  -10.744117|   -9.144501|   -9.102777|   -6.930947|
|       14984|  -10.738740|   -9.138637|   -9.091494|   -6.930947|
|       14985|  -10.730250|   -9.130904|   -9.079245|   -6.930947|
|       14986|  -10.722287|   -9.126596|   -9.073396|   -6.930947|
|       14987|  -10.719221|   -9.121891|   -9.066160|   -6.930947|
|       14988|  -10.716335|   -9.125737|   -9.072802|   -6.930947|
|       14989|  -10.714992|   -9.130121|   -9.074641|   -6.930947|
|       14990|  -10.713043|   -9.128341|   -9.069018|   -6.930947|
|       14991|  -10.708457|   -9.126471|   -9.061331|   -6.930946|
|       14992|  -10.701504|   -9.125555|   -9.060471|   -6.930946|
|       14993|  -10.696631|   -9.120893|   -9.056358|   -6.930946|
|       14994|  -10.692998|   -9.116226|   -9.051546|   -6.930946|
|       14995|  -10.691011|   -9.119772|   -9.058623|   -6.930946|
|       14996|  -10.691296|   -9.117395|   -9.055989|   -6.930946|
|       14997|  -10.689691|   -9.116839|   -9.060521|   -6.930946|
|       14998|  -10.693938|   -9.130581|   -9.073549|   -6.930946|
|       14999|  -10.700972|   -9.139276|   -9.082747|   -6.930946|

----------------------------- Solver Exit -------------------------------

Maximum number of iterations reached (ITER = 15000) before convergence.
+-----------------------------------------------------------------------+
|      Convergence Field     |     Value    |   Criterion  |  Converged |
+-----------------------------------------------------------------------+
|                      rms[P]|       -10.701|         < -10|         Yes|
|                      rms[U]|      -9.13928|         < -10|          No|
|                      rms[V]|      -9.08275|         < -10|          No|
|                      rms[k]|      -10.5394|         < -10|         Yes|
+-----------------------------------------------------------------------+
-------------------------------------------------------------------------
+-----------------------------------------------------------------------+
|        File Writing Summary       |              Filename             |
+-----------------------------------------------------------------------+
|SU2 restart                        |restart_venturi_mixturedensity_30kW_fine_test.dat|
|                                   |                     (50.9003 MB/s)|
|Paraview                           |flow_venturi_mixturedensity_30kW_fine_test_00014999.vtu|
|                                   |                     (3.32971 MB/s)|
|Paraview surface                   |surface_flow_venturi_mixturedensity_30kW_fine_test.vtu|
|                                   |                     (3.22808 MB/s)|
+-----------------------------------------------------------------------+

------------------------- Solver Postprocessing -------------------------
Deleted CNumerics container.
Deleted CIntegration container.
Deleted CSolver container.
Deleted CIteration container.
Deleted CInterface container.
Deleted CGeometry container.
Deleted CFreeFormDefBox class.
Deleted CSurfaceMovement class.
Deleted CVolumetricMovement class.
Deleted CConfig container.
Deleted nInst container.
Deleted COutput class.
-------------------------------------------------------------------------


-------------------------- Performance Summary --------------------------
Simulation totals:
   Wall-clock time (hrs):    0.820218 |            Core-hrs:     114.831
                   Cores:         140 |          DOFs/point:           7
             Points/core:     2092.49 |   Ghost points/core:     197.607
 Ghost/Owned Point Ratio:   0.0944366 | 

Preprocessing phase:
       Preproc. Time (s):     2.85808 |   Preproc. Time (%):   0.0967926

Compute phase:
        Compute Time (s):     2934.89 |    Compute Time (%):     99.3939
         Iteration count:       15000 |         Avg. s/iter:    0.195659
     Core-s/iter/Mpoints:     85.4373 |           Mpoints/s:     1.63863

Output phase:
         Output Time (s):     15.0392 |     Output Time (%):    0.509324
            Output count:           1 |       Avg. s/output:     15.0392
 Restart Aggr. BW (MB/s):     2827.88 |           MB/s/core:     20.1992
-------------------------------------------------------------------------


------------------------- Exit Success (SU2_CFD) ------------------------

