scsub> Executing:  'cd /home/hem1dev/Codes/SU2_Github_Mark_Test/SU2/Venturi'


WARNING: CONV_CRITERIA is deprecated. SU2 will choose the criteria automatically based on the CONV_FIELD.
That is, RESIDUAL for any RMS_* BGS_* value, and CAUCHY for coefficients such as DRAG etc.


-------------------------------------------------------------------------
|    ___ _   _ ___                                                      |
|   / __| | | |_  )   Release 7.1.1 "Blackbird"                         |
|   \__ \ |_| |/ /                                                      |
|   |___/\___//___|   Suite (Computational Fluid Dynamics Code)         |
|                                                                       |
-------------------------------------------------------------------------
| SU2 Project Website: https://su2code.github.io                        |
|                                                                       |
| The SU2 Project is maintained by the SU2 Foundation                   |
| (http://su2foundation.org)                                            |
-------------------------------------------------------------------------
| Copyright 2012-2021, SU2 Contributors                                 |
|                                                                       |
| SU2 is free software; you can redistribute it and/or                  |
| modify it under the terms of the GNU Lesser General Public            |
| License as published by the Free Software Foundation; either          |
| version 2.1 of the License, or (at your option) any later version.    |
|                                                                       |
| SU2 is distributed in the hope that it will be useful,                |
| but WITHOUT ANY WARRANTY; without even the implied warranty of        |
| MERCHANTABILITY or FITNESS FOR A PARTICULAR PURPOSE. See the GNU      |
| Lesser General Public License for more details.                       |
|                                                                       |
| You should have received a copy of the GNU Lesser General Public      |
| License along with SU2. If not, see <http://www.gnu.org/licenses/>.   |
-------------------------------------------------------------------------


WARNING: CONV_CRITERIA is deprecated. SU2 will choose the criteria automatically based on the CONV_FIELD.
That is, RESIDUAL for any RMS_* BGS_* value, and CAUCHY for coefficients such as DRAG etc.


Parsing config file for zone 0


WARNING: CONV_CRITERIA is deprecated. SU2 will choose the criteria automatically based on the CONV_FIELD.
That is, RESIDUAL for any RMS_* BGS_* value, and CAUCHY for coefficients such as DRAG etc.


----------------- Physical Case Definition ( Zone 0 ) -------------------
Incompressible RANS equations.
Turbulence model: Menter's SST
Hybrid RANS/LES: No Hybrid RANS/LES
No restart solution, use the values at infinity (freestream).
Dimensional simulation.
The reference area is 1 m^2.
The semi-span will be computed using the max y(3D) value.
The reference length is 1 m.
Input mesh file name: c6_cms_venturi.cgns

--------------- Space Numerical Integration ( Zone 0 ) ------------------
Flux difference splitting (FDS) upwind scheme for the flow inviscid terms.
Second order integration in space, with slope limiter.
No slope-limiting method. 
Average of gradients with correction (viscous flow terms).
Average of gradients with correction (viscous turbulence terms).
Gradient for upwind reconstruction: Green-Gauss.
Gradient for viscous and source terms: Green-Gauss.

--------------- Time Numerical Integration  ( Zone 0 ) ------------------
Local time stepping (steady state simulation).
Euler implicit method for the flow equations.
FGMRES is used for solving the linear system.
Using a ILU(0) preconditioning.
Convergence criteria of the linear solver: 1e-05.
Max number of linear iterations: 10.
No CFL adaptation.
Courant-Friedrichs-Lewy number:       35
Euler implicit time integration for the turbulence model.

------------------ Convergence Criteria  ( Zone 0 ) ---------------------
Maximum number of solver subiterations: 10000.
Begin convergence monitoring at iteration 10.
Residual minimum value: 1e-10.
Cauchy series min. value: 1e-06.
Number of Cauchy elements: 100.
Begin windowed time average at iteration 0.

-------------------- Output Information ( Zone 0 ) ----------------------
Writing solution files every 1000 iterations.
Writing the convergence history file every 1 inner iterations.
Writing the screen convergence history every 1 inner iterations.
The tabular file format is CSV (.csv).
Convergence history file name: history.
Forces breakdown file name: forces_breakdown.dat.
Surface file name: surface_flow_venturi_mixturedensity_30kW_fine.
Volume file name: flow_venturi_mixturedensity_30kW_fine.
Restart file name: restart_venturi_mixturedensity_30kW_fine.dat.

------------- Config File Boundary Information ( Zone 0 ) ---------------
+-----------------------------------------------------------------------+
|                        Marker Type|                        Marker Name|
+-----------------------------------------------------------------------+
|                     Symmetry plane|                               axis|
+-----------------------------------------------------------------------+
|                     Inlet boundary|                          gas_inlet|
|                                   |                          air_inlet|
+-----------------------------------------------------------------------+
|                    Outlet boundary|                             outlet|
+-----------------------------------------------------------------------+
|                     Heat flux wall|            wall-component1-surface|
+-----------------------------------------------------------------------+

-------------------- Output Preprocessing ( Zone 0 ) --------------------
Screen output fields: INNER_ITER, RMS_PRESSURE, RMS_VELOCITY-X, RMS_VELOCITY-Y, RMS_PASSIVE_SCALAR
History output group(s): RMS_RES, AERO_COEFF, FLOW_COEFF
Ignoring Convergence Field(s): RMS_DENSITY 
Convergence field(s): RMS_PRESSURE, RMS_VELOCITY-X, RMS_VELOCITY-Y, RMS_TKE
Warning: No (valid) fields chosen for time convergence monitoring. Time convergence monitoring inactive.
  Info: Ignoring the following volume output fields/groups:
  SOURCE, LOOKUP
Volume output fields: DENSITY, SOLUTION, PRIMITIVE, RESIDUAL, COORDINATES

------------------- Geometry Preprocessing ( Zone 0 ) -------------------
Reading the CGNS file: c6_cms_venturi.cgns.
CGNS file contains 1 database(s).
Database 1, Base:  cell dimension of 2, physical dimension of 2.
1 total zone(s).
Zone 1, Zone: 292948 total vertices, 295883 total elements.
Loading CoordinateX values into linear partitions.
Loading CoordinateY values into linear partitions.
Distributing connectivity across all ranks.
Number of connectivity sections is 6.
Section gas_inlet contains 51 elements of type Mixed.
Section air_inlet contains 150 elements of type Mixed.
Section outlet contains 157 elements of type Mixed.
Section axis contains 1721 elements of type Mixed.
Section component1-surface contains 290183 elements of type Mixed.
Section wall-component1-surface contains 3621 elements of type Mixed.
Loading surface section gas_inlet from file.
Loading surface section air_inlet from file.
Loading surface section outlet from file.
Loading surface section axis from file.
Loading volume section component1-surface from file.
Loading surface section wall-component1-surface from file.
Two dimensional problem.
292948 grid points before partitioning.
290183 volume elements before partitioning.
5 surface markers.
51 boundary elements in index 0 (Marker = gas_inlet).
150 boundary elements in index 1 (Marker = air_inlet).
157 boundary elements in index 2 (Marker = outlet).
1721 boundary elements in index 3 (Marker = axis).
3621 boundary elements in index 4 (Marker = wall-component1-surface).
Executing the partitioning functions.
Building the graph adjacency structure.
Calling ParMETIS... graph partitioning complete (13660 edge cuts).
Distributing ParMETIS coloring.
Rebalancing vertices.
Rebalancing volume element connectivity.
Rebalancing markers and surface elements.
320613 vertices including ghost points. 
303879 interior elements including halo cells. 
174 triangles.
303705 quadrilaterals.
Establishing MPI communication patterns.
Setting point connectivity.
Renumbering points (Reverse Cuthill McKee Ordering).
Recomputing point connectivity.
Setting element connectivity.
Checking the numerical grid orientation.
All volume elements are correctly orientend.
All surface elements are correctly orientend.
Identifying edges and vertices.
Setting the control volume structure.
Area of the computational grid: 0.00286002.
Searching for the closest normal neighbors to the surfaces.
Storing a mapping from global to local point index.
Compute the surface curvature.
Max K: 25766.3. Mean K: 66.0693. Standard deviation K: 1007.76.
Checking for periodicity.
Computing mesh quality statistics for the dual control volumes.
+--------------------------------------------------------------+
|           Mesh Quality Metric|        Minimum|        Maximum|
+--------------------------------------------------------------+
|    Orthogonality Angle (deg.)|        45.2115|             90|
|     CV Face Area Aspect Ratio|              1|        10.3208|
|           CV Sub-Volume Ratio|              1|        9.85984|
+--------------------------------------------------------------+
Finding max control volume width.
Communicating number of neighbors.
Wetted area = 0 m.
Area projection in the x-plane = 0 m, y-plane = 0 m.
Max. coordinate in the x-direction = -1e+10 m, y-direction = -1e+10 m.
Min. coordinate in the x-direction = 1e+10 m, y-direction = 1e+10 m.
Checking if Euler & Symmetry markers are straight/plane:
Boundary marker axis is a single straight.
Computing wall distances.

-------------------- Solver Preprocessing ( Zone 0 ) --------------------
Incompressible flow: rho_ref, vel_ref, temp_ref, p_ref
are set to 1.0 in order to perform a dimensional calculation.
Force coefficients computed using initial values.
The reference area for force coeffs. is 1 m^2.
The reference length for force coeffs. is 1 m.
The pressure is decomposed into thermodynamic and dynamic components.
The initial value of the dynamic pressure is 0.
Mach number: 0, computed using fluid speed of sound.
For external flows, the initial state is imposed at the far-field.
Angle of attack (deg): 0, computed using the initial velocity.
Side slip angle (deg): 0, computed using the initial velocity.
Reynolds number per meter: 66852.4, computed using initial values.
Reynolds number is a byproduct of inputs only (not used internally).
SI units only. The grid should be dimensional (meters).
Energy equation is active and coupled for variable density.

-- Models:
+------------------------------------------------------------------------------+
|          Viscosity Model|        Conductivity Model|              Fluid Model|
+------------------------------------------------------------------------------+
|               SUTHERLAND|          CONSTANT_PRANDTL|+------------------------------------------------------------------------------+
-- Fluid properties:
+------------------------------------------------------------------------------+
|                  Name|    Dim. value|    Ref. value|      Unit|Non-dim. value|
+------------------------------------------------------------------------------+
|        Ref. Viscosity|     1.716e-05|             1|   N.s/m^2|     1.716e-05|
|      Sutherland Temp.|        273.15|             1|         K|        273.15|
|     Sutherland Const.|         110.4|             1|         K|         110.4|
+------------------------------------------------------------------------------+
|        Prandtl (Lam.)|             -|             -|         -|          0.72|
|       Prandtl (Turb.)|             -|             -|         -|           0.9|
+------------------------------------------------------------------------------+
-- Initial and free-stream conditions:
+------------------------------------------------------------------------------+
|                  Name|    Dim. value|    Ref. value|      Unit|Non-dim. value|
+------------------------------------------------------------------------------+
|      Dynamic Pressure|             0|             1|        Pa|             0|
|        Total Pressure|           0.6|             1|        Pa|           0.6|
|               Density|           1.2|             1|    kg/m^3|           1.2|
|           Temperature|           300|             1|         K|           300|
|            Velocity-X|             1|             1|       m/s|             1|
|            Velocity-Y|             0|             1|       m/s|             0|
|    Velocity Magnitude|             1|             1|       m/s|             1|
+------------------------------------------------------------------------------+
|             Viscosity|     1.795e-05|             1|   N.s/m^2|     1.795e-05|
|          Conductivity|             -|             1|   W/m^2.K|             -|
|     Turb. Kin. Energy|       0.00375|             1|   m^2/s^2|       0.00375|
|     Spec. Dissipation|       25.0696|             1|       1/s|       25.0696|
+------------------------------------------------------------------------------+
|           Mach Number|             -|             -|         -|             0|
|       Reynolds Number|             -|             -|         -|       66852.4|
+------------------------------------------------------------------------------+
Initialize Jacobian structure (Navier-Stokes). MG level: 0.
Initialize Jacobian structure (passive scalar model).
Initialize Jacobian structure (SST model).

------------------- Numerics Preprocessing ( Zone 0 ) -------------------

----------------- Integration Preprocessing ( Zone 0 ) ------------------

------------------- Iteration Preprocessing ( Zone 0 ) ------------------
Euler/Navier-Stokes/RANS fluid iteration.

------------------------------ Begin Solver -----------------------------

Simulation Run using the Single-zone Driver
Initializing passive scalar (initial condition).
initialization = 1 1
+----------------------------------------------------------------+
|  Inner_Iter|      rms[P]|      rms[U]|      rms[V]|      rms[c]|
+----------------------------------------------------------------+
|           0|   -4.749965|   -4.481098|   -3.999037|   -5.315130|
|           1|   -4.985770|   -4.506686|   -4.052849|   -4.993316|
|           2|   -5.332203|   -4.599508|   -4.297139|   -5.165193|
|           3|   -5.403554|   -4.671491|   -4.273694|   -5.250619|
|           4|   -5.524045|   -4.722305|   -4.334521|   -5.303943|
|           5|   -5.637024|   -4.767535|   -4.424806|   -5.335786|
|           6|   -5.700403|   -4.801823|   -4.479727|   -5.360257|
|           7|   -5.738024|   -4.821354|   -4.503658|   -5.377915|
|           8|   -5.760355|   -4.831338|   -4.522582|   -5.390105|
|           9|   -5.765406|   -4.836520|   -4.551163|   -5.397259|
|          10|   -5.752756|   -4.838140|   -4.597687|   -5.401338|
|          11|   -5.730981|   -4.835759|   -4.666408|   -5.405979|
|          12|   -5.712712|   -4.828929|   -4.758710|   -5.414758|
|          13|   -5.705520|   -4.818075|   -4.869076|   -5.430153|
|          14|   -5.710691|   -4.804883|   -4.970534|   -5.453611|
|          15|   -5.725939|   -4.791701|   -5.010968|   -5.485775|
|          16|   -5.747283|   -4.780217|   -4.982848|   -5.525181|
|          17|   -5.770942|   -4.771876|   -4.932497|   -5.569601|
|          18|   -5.793886|   -4.767473|   -4.890335|   -5.616174|
|          19|   -5.813617|   -4.766962|   -4.862290|   -5.661994|
|          20|   -5.827407|   -4.769533|   -4.844436|   -5.704130|
|          21|   -5.831185|   -4.773878|   -4.828818|   -5.740063|
|          22|   -5.819618|   -4.778542|   -4.803413|   -5.768230|
|          23|   -5.790267|   -4.782338|   -4.758401|   -5.788836|
|          24|   -5.750787|   -4.784639|   -4.690987|   -5.803584|
|          25|   -5.713767|   -4.785440|   -4.620049|   -5.813903|
|          26|   -5.689601|   -4.784863|   -4.565676|   -5.821199|
|          27|   -5.682602|   -4.783426|   -4.533544|   -5.822609|
|          28|   -5.692771|   -4.782024|   -4.522085|   -5.815226|
|          29|   -5.717330|   -4.781569|   -4.526924|   -5.798672|
|          30|   -5.752352|   -4.782572|   -4.542615|   -5.774733|
|          31|   -5.793029|   -4.784823|   -4.564503|   -5.747140|
|          32|   -5.833913|   -4.787402|   -4.589370|   -5.718969|
|          33|   -5.869324|   -4.789008|   -4.616143|   -5.692998|
|          34|   -5.894629|   -4.788411|   -4.645710|   -5.670962|
|          35|   -5.908059|   -4.784844|   -4.679975|   -5.653834|
|          36|   -5.911472|   -4.778154|   -4.720863|   -5.642050|
|          37|   -5.909140|   -4.768732|   -4.769524|   -5.635604|
|          38|   -5.905619|   -4.757318|   -4.825623|   -5.634157|
|          39|   -5.904335|   -4.744787|   -4.886613|   -5.637076|
|          40|   -5.907232|   -4.731993|   -4.946602|   -5.643378|
|          41|   -5.914939|   -4.719672|   -4.995939|   -5.652043|
|          42|   -5.927029|   -4.708374|   -5.024441|   -5.662106|
|          43|   -5.942185|   -4.698451|   -5.028102|   -5.672477|
|          44|   -5.958307|   -4.690084|   -5.011747|   -5.682241|
|          45|   -5.972742|   -4.683333|   -4.984026|   -5.690723|
|          46|   -5.982833|   -4.678180|   -4.950815|   -5.697517|
|          47|   -5.986921|   -4.674567|   -4.915662|   -5.702482|
|          48|   -5.985122|   -4.672393|   -4.881089|   -5.705702|
|          49|   -5.979309|   -4.671484|   -4.849100|   -5.707335|
|          50|   -5.972232|   -4.671573|   -4.820811|   -5.707565|
|          51|   -5.966588|   -4.672293|   -4.797510|   -5.706549|
|          52|   -5.964243|   -4.673216|   -4.779296|   -5.704416|
|          53|   -5.966193|   -4.673918|   -4.766500|   -5.701248|
|          54|   -5.972577|   -4.674063|   -4.758679|   -5.697227|
|          55|   -5.982819|   -4.673457|   -4.755281|   -5.692502|
|          56|   -5.995881|   -4.672069|   -4.755921|   -5.687312|
|          57|   -6.010377|   -4.669999|   -4.760534|   -5.681898|
|          58|   -6.024781|   -4.667419|   -4.769230|   -5.676517|
|          59|   -6.037684|   -4.664509|   -4.782203|   -5.671421|
|          60|   -6.048061|   -4.661396|   -4.799744|   -5.666824|
|          61|   -6.055506|   -4.658134|   -4.821932|   -5.662891|
|          62|   -6.060256|   -4.654697|   -4.848422|   -5.659721|
|          63|   -6.063036|   -4.651001|   -4.878265|   -5.657344|
|          64|   -6.064788|   -4.646936|   -4.909668|   -5.655721|
|          65|   -6.066417|   -4.642406|   -4.939902|   -5.654787|
|          66|   -6.068608|   -4.637358|   -4.965479|   -5.654435|
|          67|   -6.071740|   -4.631807|   -4.983017|   -5.654547|
|          68|   -6.075880|   -4.625845|   -4.990561|   -5.654981|
|          69|   -6.080824|   -4.619626|   -4.988474|   -5.655655|
|          70|   -6.086180|   -4.613348|   -4.979078|   -5.656464|
|          71|   -6.091470|   -4.607225|   -4.965424|   -5.657347|
|          72|   -6.096245|   -4.601456|   -4.950207|   -5.658194|
|          73|   -6.100188|   -4.596209|   -4.935200|   -5.658976|
|          74|   -6.103186|   -4.591597|   -4.921356|   -5.659659|
|          75|   -6.105338|   -4.587671|   -4.909045|   -5.660209|
|          76|   -6.106919|   -4.584422|   -4.898271|   -5.660578|
|          77|   -6.108296|   -4.581784|   -4.888900|   -5.660749|
|          78|   -6.109839|   -4.579645|   -4.880809|   -5.660694|
|          79|   -6.111844|   -4.577873|   -4.873910|   -5.660364|
|          80|   -6.114480|   -4.576324|   -4.868289|   -5.659759|
|          81|   -6.117768|   -4.574866|   -4.864115|   -5.658894|
|          82|   -6.121590|   -4.573388|   -4.861615|   -5.657772|
|          83|   -6.125721|   -4.571814|   -4.861001|   -5.656408|
|          84|   -6.129873|   -4.570108|   -4.862430|   -5.654848|
|          85|   -6.133758|   -4.568266|   -4.865961|   -5.653142|
|          86|   -6.137140|   -4.566310|   -4.871510|   -5.651316|
|          87|   -6.139882|   -4.564270|   -4.878831|   -5.649410|
|          88|   -6.141966|   -4.562180|   -4.887504|   -5.647455|
|          89|   -6.143481|   -4.560070|   -4.896999|   -5.645490|
|          90|   -6.144596|   -4.557960|   -4.906645|   -5.643539|
|          91|   -6.145516|   -4.555866|   -4.915746|   -5.641618|
|          92|   -6.146436|   -4.553797|   -4.923697|   -5.639749|
|          93|   -6.147509|   -4.551762|   -4.929995|   -5.637947|
|          94|   -6.148822|   -4.549776|   -4.934388|   -5.636217|
|          95|   -6.150398|   -4.547855|   -4.936857|   -5.634546|
|          96|   -6.152200|   -4.546019|   -4.937581|   -5.632929|
|          97|   -6.154152|   -4.544286|   -4.936900|   -5.631355|
|          98|   -6.156164|   -4.542668|   -4.935164|   -5.629820|
|          99|   -6.158154|   -4.541165|   -4.932690|   -5.628317|
|         100|   -6.160066|   -4.539766|   -4.929740|   -5.626834|
|         101|   -6.161878|   -4.538451|   -4.926484|   -5.625365|
|         102|   -6.163606|   -4.537194|   -4.923007|   -5.623895|
|         103|   -6.165291|   -4.535963|   -4.919333|   -5.622414|
|         104|   -6.166989|   -4.534726|   -4.915496|   -5.620937|
|         105|   -6.168752|   -4.533455|   -4.911533|   -5.619459|
|         106|   -6.170616|   -4.532130|   -4.907476|   -5.617980|
|         107|   -6.172593|   -4.530740|   -4.903337|   -5.616496|
|         108|   -6.174673|   -4.529285|   -4.899203|   -5.615007|
|         109|   -6.176820|   -4.527773|   -4.895105|   -5.613511|
|         110|   -6.178983|   -4.526214|   -4.891036|   -5.612009|
|         111|   -6.181110|   -4.524616|   -4.886917|   -5.610499|
|         112|   -6.183155|   -4.522983|   -4.882701|   -5.608983|
|         113|   -6.185090|   -4.521312|   -4.878304|   -5.607462|
|         114|   -6.186902|   -4.519598|   -4.873615|   -5.605939|
|         115|   -6.188599|   -4.517828|   -4.868500|   -5.604409|
|         116|   -6.190204|   -4.515985|   -4.862821|   -5.602870|
|         117|   -6.191746|   -4.514063|   -4.856737|   -5.601321|
|         118|   -6.193252|   -4.512045|   -4.850325|   -5.599753|
|         119|   -6.194745|   -4.509918|   -4.843698|   -5.598163|
|         120|   -6.196235|   -4.507679|   -4.837001|   -5.596537|
|         121|   -6.197718|   -4.505329|   -4.830375|   -5.594866|
|         122|   -6.199185|   -4.502883|   -4.823935|   -5.593155|
|         123|   -6.200619|   -4.500366|   -4.817795|   -5.591384|
|         124|   -6.202002|   -4.497819|   -4.812010|   -5.589541|
|         125|   -6.203320|   -4.495291|   -4.806600|   -5.587633|
|         126|   -6.204566|   -4.492829|   -4.801554|   -5.585659|
|         127|   -6.205740|   -4.490482|   -4.796825|   -5.583615|
|         128|   -6.206852|   -4.488279|   -4.792368|   -5.581496|
|         129|   -6.207915|   -4.486230|   -4.788172|   -5.579314|
|         130|   -6.208946|   -4.484330|   -4.784236|   -5.577082|
|         131|   -6.209958|   -4.482558|   -4.780588|   -5.574810|
|         132|   -6.210956|   -4.480890|   -4.777284|   -5.572512|
|         133|   -6.211940|   -4.479298|   -4.774378|   -5.570203|
|         134|   -6.212903|   -4.477770|   -4.771915|   -5.567900|
|         135|   -6.213833|   -4.476293|   -4.769917|   -5.565619|
|         136|   -6.214717|   -4.474864|   -4.768371|   -5.563365|
|         137|   -6.215546|   -4.473485|   -4.767231|   -5.561151|
|         138|   -6.216311|   -4.472160|   -4.766412|   -5.558982|
|         139|   -6.217008|   -4.470893|   -4.765800|   -5.556848|
|         140|   -6.217636|   -4.469687|   -4.765257|   -5.554757|
|         141|   -6.218196|   -4.468540|   -4.764647|   -5.552719|
|         142|   -6.218688|   -4.467443|   -4.763848|   -5.550726|
|         143|   -6.219110|   -4.466387|   -4.762745|   -5.548775|
|         144|   -6.219459|   -4.465368|   -4.761207|   -5.546861|
|         145|   -6.219729|   -4.464384|   -4.759164|   -5.544978|
|         146|   -6.219915|   -4.463429|   -4.756579|   -5.543126|
|         147|   -6.220015|   -4.462508|   -4.753449|   -5.541306|
|         148|   -6.220029|   -4.461624|   -4.749786|   -5.539517|
|         149|   -6.219965|   -4.460782|   -4.745631|   -5.537758|
|         150|   -6.219830|   -4.459980|   -4.740601|   -5.536052|
|         151|   -6.219705|   -4.459227|   -4.735046|   -5.534393|
|         152|   -6.219663|   -4.458509|   -4.729312|   -5.532774|
|         153|   -6.219721|   -4.457805|   -4.723500|   -5.531202|
|         154|   -6.219878|   -4.457105|   -4.717619|   -5.529689|
|         155|   -6.220134|   -4.456399|   -4.711699|   -5.528252|
|         156|   -6.220498|   -4.455679|   -4.705847|   -5.526896|
|         157|   -6.220974|   -4.454941|   -4.700131|   -5.525630|
|         158|   -6.221560|   -4.454177|   -4.694605|   -5.524460|
|         159|   -6.222251|   -4.453387|   -4.689306|   -5.523391|
|         160|   -6.223037|   -4.452573|   -4.684266|   -5.522425|
|         161|   -6.223909|   -4.451736|   -4.679493|   -5.521571|
|         162|   -6.224853|   -4.450882|   -4.674914|   -5.520834|
|         163|   -6.225873|   -4.450014|   -4.670650|   -5.520205|
|         164|   -6.226957|   -4.449133|   -4.666712|   -5.519681|
|         165|   -6.228085|   -4.448247|   -4.663101|   -5.519265|
|         166|   -6.229233|   -4.447362|   -4.659806|   -5.518957|
|         167|   -6.230382|   -4.446486|   -4.656834|   -5.518756|
|         168|   -6.231514|   -4.445627|   -4.654195|   -5.518661|
|         169|   -6.232609|   -4.444795|   -4.651884|   -5.518668|
|         170|   -6.233653|   -4.443999|   -4.649828|   -5.518776|
|         171|   -6.234655|   -4.443245|   -4.648122|   -5.518976|
|         172|   -6.235608|   -4.442538|   -4.646796|   -5.519262|
|         173|   -6.236502|   -4.441884|   -4.645850|   -5.519632|
|         174|   -6.237327|   -4.441300|   -4.645271|   -5.520087|
|         175|   -6.238076|   -4.440797|   -4.645079|   -5.520622|
|         176|   -6.238745|   -4.440379|   -4.645284|   -5.521233|
|         177|   -6.239333|   -4.440049|   -4.645889|   -5.521916|
|         178|   -6.239845|   -4.439807|   -4.646883|   -5.522664|
|         179|   -6.240288|   -4.439651|   -4.648280|   -5.523471|
|         180|   -6.240671|   -4.439575|   -4.649993|   -5.524335|
|         181|   -6.241016|   -4.439575|   -4.652050|   -5.525247|
|         182|   -6.241338|   -4.439645|   -4.654469|   -5.526198|
|         183|   -6.241643|   -4.439782|   -4.657209|   -5.527179|
|         184|   -6.241934|   -4.439987|   -4.660254|   -5.528184|
|         185|   -6.242212|   -4.440254|   -4.663571|   -5.529206|
|         186|   -6.242478|   -4.440579|   -4.667132|   -5.530239|
|         187|   -6.242732|   -4.440954|   -4.670914|   -5.531278|
|         188|   -6.242977|   -4.441370|   -4.674885|   -5.532315|
|         189|   -6.243216|   -4.441816|   -4.679010|   -5.533341|
|         190|   -6.243452|   -4.442281|   -4.683262|   -5.534350|
|         191|   -6.243687|   -4.442754|   -4.687581|   -5.535340|
|         192|   -6.243926|   -4.443223|   -4.691942|   -5.536306|
|         193|   -6.244171|   -4.443680|   -4.696299|   -5.537244|
|         194|   -6.244423|   -4.444115|   -4.700596|   -5.538152|
|         195|   -6.244684|   -4.444519|   -4.704806|   -5.539020|
|         196|   -6.244957|   -4.444885|   -4.708887|   -5.539846|
|         197|   -6.245241|   -4.445207|   -4.712788|   -5.540627|
|         198|   -6.245536|   -4.445478|   -4.716487|   -5.541362|
|         199|   -6.245844|   -4.445693|   -4.719954|   -5.542044|
|         200|   -6.246165|   -4.445845|   -4.723148|   -5.542674|
|         201|   -6.246498|   -4.445929|   -4.726058|   -5.543245|
|         202|   -6.246843|   -4.445940|   -4.728665|   -5.543753|
|         203|   -6.247202|   -4.445872|   -4.730947|   -5.544197|
|         204|   -6.247574|   -4.445722|   -4.732912|   -5.544575|
|         205|   -6.247961|   -4.445485|   -4.734538|   -5.544887|
|         206|   -6.248365|   -4.445155|   -4.735805|   -5.545135|
|         207|   -6.248791|   -4.444726|   -4.736711|   -5.545320|
|         208|   -6.249246|   -4.444195|   -4.737302|   -5.545438|
|         209|   -6.249738|   -4.443557|   -4.737613|   -5.545492|
|         210|   -6.250271|   -4.442807|   -4.737650|   -5.545485|
|         211|   -6.250851|   -4.441943|   -4.737446|   -5.545422|
|         212|   -6.251484|   -4.440961|   -4.737023|   -5.545308|
|         213|   -6.252175|   -4.439858|   -4.736396|   -5.545148|
|         214|   -6.252935|   -4.438631|   -4.735604|   -5.544948|
|         215|   -6.253772|   -4.437278|   -4.734675|   -5.544711|
|         216|   -6.254698|   -4.435798|   -4.733623|   -5.544445|
|         217|   -6.255724|   -4.434190|   -4.732483|   -5.544155|
|         218|   -6.256860|   -4.432457|   -4.731278|   -5.543849|
|         219|   -6.258118|   -4.430600|   -4.730028|   -5.543534|
|         220|   -6.259510|   -4.428625|   -4.728753|   -5.543217|
|         221|   -6.261047|   -4.426538|   -4.727428|   -5.542905|
|         222|   -6.262742|   -4.424345|   -4.726080|   -5.542602|
|         223|   -6.264604|   -4.422058|   -4.724757|   -5.542316|
|         224|   -6.266643|   -4.419688|   -4.723464|   -5.542049|
|         225|   -6.268864|   -4.417249|   -4.722218|   -5.541808|
|         226|   -6.271267|   -4.414756|   -4.721025|   -5.541594|
|         227|   -6.273853|   -4.412228|   -4.719882|   -5.541410|
|         228|   -6.276620|   -4.409682|   -4.718799|   -5.541258|
|         229|   -6.279564|   -4.407136|   -4.717773|   -5.541139|
|         230|   -6.282684|   -4.404608|   -4.716808|   -5.541055|
|         231|   -6.285972|   -4.402114|   -4.715904|   -5.541003|
|         232|   -6.289427|   -4.399669|   -4.715067|   -5.540986|
|         233|   -6.293045|   -4.397287|   -4.714297|   -5.541003|
|         234|   -6.296823|   -4.394978|   -4.713586|   -5.541052|
|         235|   -6.300762|   -4.392750|   -4.712946|   -5.541132|
|         236|   -6.304853|   -4.390610|   -4.712375|   -5.541243|
|         237|   -6.309100|   -4.388565|   -4.711884|   -5.541383|
|         238|   -6.313515|   -4.386616|   -4.711454|   -5.541551|
|         239|   -6.318092|   -4.384762|   -4.711107|   -5.541746|
|         240|   -6.322852|   -4.382995|   -4.710854|   -5.541968|
|         241|   -6.327776|   -4.381311|   -4.710695|   -5.542213|
|         242|   -6.332853|   -4.379716|   -4.710634|   -5.542482|
|         243|   -6.338115|   -4.378200|   -4.710671|   -5.542779|
|         244|   -6.343551|   -4.376762|   -4.710807|   -5.543096|
|         245|   -6.349200|   -4.375386|   -4.711043|   -5.543443|
|         246|   -6.355016|   -4.374072|   -4.711383|   -5.543817|
|         247|   -6.360986|   -4.372829|   -4.711827|   -5.544218|
|         248|   -6.367149|   -4.371649|   -4.712374|   -5.544654|
|         249|   -6.373510|   -4.370523|   -4.713028|   -5.545122|
|         250|   -6.380054|   -4.369446|   -4.713786|   -5.545620|
|         251|   -6.386763|   -4.368415|   -4.714648|   -5.546151|
|         252|   -6.393541|   -4.367459|   -4.715610|   -5.546716|
|         253|   -6.400503|   -4.366563|   -4.716658|   -5.547319|
|         254|   -6.407590|   -4.365729|   -4.717794|   -5.547962|
|         255|   -6.414789|   -4.364959|   -4.719007|   -5.548646|
|         256|   -6.422104|   -4.364248|   -4.720289|   -5.549364|
|         257|   -6.429470|   -4.363603|   -4.721635|   -5.550114|
|         258|   -6.436892|   -4.363026|   -4.723019|   -5.550895|
|         259|   -6.444329|   -4.362519|   -4.724422|   -5.551708|
|         260|   -6.451771|   -4.362078|   -4.725835|   -5.552551|
|         261|   -6.459127|   -4.361715|   -4.727243|   -5.553421|
|         262|   -6.466462|   -4.361415|   -4.728630|   -5.554317|
|         263|   -6.473635|   -4.361188|   -4.729982|   -5.555233|
|         264|   -6.480628|   -4.361040|   -4.731280|   -5.556166|
|         265|   -6.487377|   -4.360982|   -4.732511|   -5.557110|
|         266|   -6.493981|   -4.360994|   -4.733660|   -5.558061|
|         267|   -6.500339|   -4.361078|   -4.734712|   -5.559013|
|         268|   -6.506435|   -4.361225|   -4.735656|   -5.559962|
|         269|   -6.512210|   -4.361435|   -4.736476|   -5.560905|
|         270|   -6.517587|   -4.361719|   -4.737161|   -5.561836|
|         271|   -6.522626|   -4.362070|   -4.737704|   -5.562753|
|         272|   -6.527268|   -4.362487|   -4.738094|   -5.563653|
|         273|   -6.531467|   -4.362975|   -4.738327|   -5.564532|
|         274|   -6.535276|   -4.363524|   -4.738406|   -5.565387|
|         275|   -6.538695|   -4.364126|   -4.738330|   -5.566216|
|         276|   -6.541636|   -4.364784|   -4.738107|   -5.567019|
|         277|   -6.544110|   -4.365496|   -4.737742|   -5.567801|
|         278|   -6.546187|   -4.366250|   -4.737245|   -5.568566|
|         279|   -6.547804|   -4.367047|   -4.736631|   -5.569309|
|         280|   -6.549256|   -4.367891|   -4.735870|   -5.570039|
|         281|   -6.550609|   -4.368778|   -4.734925|   -5.570754|
|         282|   -6.551804|   -4.369699|   -4.733856|   -5.571447|
|         283|   -6.552930|   -4.370644|   -4.732741|   -5.572117|
|         284|   -6.553955|   -4.371615|   -4.731612|   -5.572768|
|         285|   -6.554887|   -4.372602|   -4.730477|   -5.573404|
|         286|   -6.555551|   -4.373625|   -4.729347|   -5.574030|
|         287|   -6.556005|   -4.374677|   -4.728227|   -5.574643|
|         288|   -6.556141|   -4.375768|   -4.727126|   -5.575250|
|         289|   -6.556025|   -4.376892|   -4.726062|   -5.575851|
|         290|   -6.555507|   -4.378072|   -4.725061|   -5.576445|
|         291|   -6.554688|   -4.379300|   -4.724162|   -5.577034|
|         292|   -6.553594|   -4.380572|   -4.723351|   -5.577618|
|         293|   -6.552191|   -4.381894|   -4.722626|   -5.578194|
|         294|   -6.550589|   -4.383252|   -4.721980|   -5.578759|
|         295|   -6.548737|   -4.384649|   -4.721424|   -5.579317|
|         296|   -6.546681|   -4.386083|   -4.720958|   -5.579866|
|         297|   -6.544469|   -4.387540|   -4.720588|   -5.580403|
|         298|   -6.542114|   -4.389015|   -4.720291|   -5.580941|
|         299|   -6.539602|   -4.390514|   -4.720071|   -5.581474|
|         300|   -6.536946|   -4.392042|   -4.719932|   -5.582001|
|         301|   -6.534184|   -4.393600|   -4.719863|   -5.582520|
|         302|   -6.531344|   -4.395185|   -4.719862|   -5.583031|
|         303|   -6.528471|   -4.396787|   -4.719926|   -5.583530|
|         304|   -6.525523|   -4.398411|   -4.720047|   -5.584023|
|         305|   -6.522534|   -4.400050|   -4.720216|   -5.584503|
|         306|   -6.519513|   -4.401700|   -4.720425|   -5.584972|
|         307|   -6.516465|   -4.403359|   -4.720665|   -5.585440|
|         308|   -6.513412|   -4.405022|   -4.720926|   -5.585897|
|         309|   -6.510363|   -4.406683|   -4.721194|   -5.586345|
|         310|   -6.507329|   -4.408339|   -4.721471|   -5.586787|
|         311|   -6.504313|   -4.409992|   -4.721757|   -5.587231|
|         312|   -6.501333|   -4.411643|   -4.722039|   -5.587665|
|         313|   -6.498388|   -4.413288|   -4.722308|   -5.588089|
|         314|   -6.495493|   -4.414926|   -4.722568|   -5.588501|
|         315|   -6.492645|   -4.416554|   -4.722825|   -5.588907|
|         316|   -6.489849|   -4.418173|   -4.723084|   -5.589310|
|         317|   -6.487114|   -4.419784|   -4.723340|   -5.589705|
|         318|   -6.484448|   -4.421382|   -4.723585|   -5.590098|
|         319|   -6.481838|   -4.422970|   -4.723824|   -5.590497|
|         320|   -6.479291|   -4.424548|   -4.724059|   -5.590898|
|         321|   -6.476802|   -4.426118|   -4.724286|   -5.591301|
|         322|   -6.474368|   -4.427681|   -4.724508|   -5.591704|
|         323|   -6.471982|   -4.429241|   -4.724724|   -5.592101|
|         324|   -6.469643|   -4.430797|   -4.724934|   -5.592488|
|         325|   -6.467340|   -4.432351|   -4.725137|   -5.592867|
|         326|   -6.465068|   -4.433906|   -4.725335|   -5.593237|
|         327|   -6.462817|   -4.435465|   -4.725530|   -5.593599|
|         328|   -6.460582|   -4.437025|   -4.725720|   -5.593950|
|         329|   -6.458353|   -4.438592|   -4.725906|   -5.594301|
|         330|   -6.456126|   -4.440170|   -4.726091|   -5.594647|
|         331|   -6.453895|   -4.441760|   -4.726272|   -5.594988|
|         332|   -6.451657|   -4.443364|   -4.726448|   -5.595325|
|         333|   -6.449406|   -4.444982|   -4.726627|   -5.595659|
|         334|   -6.447142|   -4.446615|   -4.726807|   -5.595999|
|         335|   -6.444863|   -4.448265|   -4.726990|   -5.596331|
|         336|   -6.442571|   -4.449931|   -4.727173|   -5.596646|
|         337|   -6.440269|   -4.451613|   -4.727357|   -5.596948|
|         338|   -6.437961|   -4.453309|   -4.727539|   -5.597262|
|         339|   -6.435651|   -4.455021|   -4.727718|   -5.597586|
|         340|   -6.433346|   -4.456746|   -4.727893|   -5.597902|
|         341|   -6.431052|   -4.458484|   -4.728063|   -5.598210|
|         342|   -6.428777|   -4.460232|   -4.728227|   -5.598512|
|         343|   -6.426529|   -4.461989|   -4.728384|   -5.598810|
|         344|   -6.424316|   -4.463751|   -4.728537|   -5.599102|
|         345|   -6.422144|   -4.465516|   -4.728689|   -5.599383|
|         346|   -6.420022|   -4.467281|   -4.728837|   -5.599658|
|         347|   -6.417957|   -4.469041|   -4.728983|   -5.599921|
|         348|   -6.415953|   -4.470795|   -4.729125|   -5.600169|
|         349|   -6.414016|   -4.472538|   -4.729263|   -5.600408|
|         350|   -6.412150|   -4.474270|   -4.729396|   -5.600633|
|         351|   -6.410359|   -4.475987|   -4.729525|   -5.600857|
|         352|   -6.408644|   -4.477686|   -4.729649|   -5.601065|
|         353|   -6.407007|   -4.479366|   -4.729765|   -5.601257|
|         354|   -6.405449|   -4.481025|   -4.729873|   -5.601428|
|         355|   -6.403967|   -4.482662|   -4.729971|   -5.601577|
|         356|   -6.402562|   -4.484277|   -4.730060|   -5.601714|
|         357|   -6.401230|   -4.485869|   -4.730136|   -5.601851|
|         358|   -6.399968|   -4.487439|   -4.730199|   -5.601966|
|         359|   -6.398774|   -4.488988|   -4.730246|   -5.602050|
|         360|   -6.397643|   -4.490516|   -4.730277|   -5.602097|
|         361|   -6.396571|   -4.492025|   -4.730289|   -5.602107|
|         362|   -6.395555|   -4.493517|   -4.730281|   -5.602079|
|         363|   -6.394589|   -4.494992|   -4.730253|   -5.602011|
|         364|   -6.393671|   -4.496453|   -4.730203|   -5.601928|
|         365|   -6.392796|   -4.497901|   -4.730130|   -5.601808|
|         366|   -6.391961|   -4.499338|   -4.730035|   -5.601641|
|         367|   -6.391162|   -4.500764|   -4.729917|   -5.601445|
|         368|   -6.390395|   -4.502182|   -4.729776|   -5.601211|
|         369|   -6.389657|   -4.503593|   -4.729612|   -5.600971|
|         370|   -6.388947|   -4.504997|   -4.729424|   -5.600704|
|         371|   -6.388261|   -4.506395|   -4.729213|   -5.600392|
|         372|   -6.387598|   -4.507788|   -4.728979|   -5.600031|
|         373|   -6.386957|   -4.509175|   -4.728722|   -5.599630|
|         374|   -6.386336|   -4.510555|   -4.728444|   -5.599181|
|         375|   -6.385734|   -4.511929|   -4.728144|   -5.598686|
|         376|   -6.385151|   -4.513295|   -4.727824|   -5.598146|
|         377|   -6.384585|   -4.514654|   -4.727484|   -5.597564|
|         378|   -6.384037|   -4.516004|   -4.727124|   -5.596941|
|         379|   -6.383504|   -4.517345|   -4.726745|   -5.596278|
|         380|   -6.382988|   -4.518674|   -4.726348|   -5.595577|
|         381|   -6.382486|   -4.519992|   -4.725932|   -5.594840|
|         382|   -6.381998|   -4.521295|   -4.725498|   -5.594074|
|         383|   -6.381523|   -4.522583|   -4.725048|   -5.593281|
|         384|   -6.381060|   -4.523854|   -4.724581|   -5.592464|
|         385|   -6.380607|   -4.525106|   -4.724100|   -5.591633|
|         386|   -6.380164|   -4.526338|   -4.723606|   -5.590801|
|         387|   -6.379728|   -4.527549|   -4.723102|   -5.589954|
|         388|   -6.379298|   -4.528735|   -4.722589|   -5.589134|
|         389|   -6.378873|   -4.529897|   -4.722069|   -5.588330|
|         390|   -6.378451|   -4.531032|   -4.721545|   -5.587505|
|         391|   -6.378031|   -4.532138|   -4.721016|   -5.586663|
|         392|   -6.377612|   -4.533214|   -4.720484|   -5.585810|
|         393|   -6.377194|   -4.534258|   -4.719949|   -5.584944|
|         394|   -6.376776|   -4.535269|   -4.719411|   -5.584065|
|         395|   -6.376357|   -4.536246|   -4.718871|   -5.583174|
|         396|   -6.375938|   -4.537186|   -4.718330|   -5.582274|
|         397|   -6.375518|   -4.538087|   -4.717790|   -5.581363|
|         398|   -6.375097|   -4.538947|   -4.717252|   -5.580446|
|         399|   -6.374678|   -4.539765|   -4.716718|   -5.579523|
|         400|   -6.374261|   -4.540538|   -4.716189|   -5.578597|
|         401|   -6.373846|   -4.541263|   -4.715668|   -5.577671|
|         402|   -6.373437|   -4.541937|   -4.715157|   -5.576743|
|         403|   -6.373035|   -4.542559|   -4.714658|   -5.575814|
|         404|   -6.372641|   -4.543126|   -4.714172|   -5.574894|
|         405|   -6.372259|   -4.543635|   -4.713699|   -5.573984|
|         406|   -6.371889|   -4.544086|   -4.713240|   -5.573082|
|         407|   -6.371535|   -4.544476|   -4.712796|   -5.572181|
|         408|   -6.371198|   -4.544804|   -4.712367|   -5.571284|
|         409|   -6.370881|   -4.545067|   -4.711952|   -5.570405|
|         410|   -6.370585|   -4.545264|   -4.711553|   -5.569546|
|         411|   -6.370310|   -4.545394|   -4.711168|   -5.568693|
|         412|   -6.370058|   -4.545457|   -4.710797|   -5.567840|
|         413|   -6.369830|   -4.545453|   -4.710438|   -5.566994|
|         414|   -6.369626|   -4.545383|   -4.710090|   -5.566148|
|         415|   -6.369446|   -4.545249|   -4.709750|   -5.565303|
|         416|   -6.369288|   -4.545053|   -4.709418|   -5.564462|
|         417|   -6.369153|   -4.544799|   -4.709089|   -5.563628|
|         418|   -6.369037|   -4.544490|   -4.708762|   -5.562805|
|         419|   -6.368939|   -4.544129|   -4.708436|   -5.561988|
|         420|   -6.368856|   -4.543720|   -4.708109|   -5.561174|
|         421|   -6.368785|   -4.543267|   -4.707778|   -5.560366|
|         422|   -6.368722|   -4.542773|   -4.707442|   -5.559563|
|         423|   -6.368663|   -4.542243|   -4.707101|   -5.558768|
|         424|   -6.368604|   -4.541682|   -4.706755|   -5.557985|
|         425|   -6.368540|   -4.541093|   -4.706404|   -5.557226|
|         426|   -6.368466|   -4.540482|   -4.706048|   -5.556494|
|         427|   -6.368378|   -4.539854|   -4.705685|   -5.555787|
|         428|   -6.368271|   -4.539213|   -4.705318|   -5.555092|
|         429|   -6.368142|   -4.538566|   -4.704944|   -5.554410|
|         430|   -6.367984|   -4.537916|   -4.704565|   -5.553742|
|         431|   -6.367795|   -4.537269|   -4.704179|   -5.553097|
|         432|   -6.367570|   -4.536629|   -4.703787|   -5.552469|
|         433|   -6.367306|   -4.536001|   -4.703387|   -5.551859|
|         434|   -6.367000|   -4.535388|   -4.702977|   -5.551266|
|         435|   -6.366650|   -4.534793|   -4.702557|   -5.550697|
|         436|   -6.366253|   -4.534220|   -4.702126|   -5.550155|
|         437|   -6.365810|   -4.533672|   -4.701682|   -5.549632|
|         438|   -6.365317|   -4.533149|   -4.701225|   -5.549127|
|         439|   -6.364776|   -4.532656|   -4.700754|   -5.548642|
|         440|   -6.364187|   -4.532192|   -4.700269|   -5.548176|
|         441|   -6.363549|   -4.531759|   -4.699769|   -5.547730|
|         442|   -6.362865|   -4.531356|   -4.699255|   -5.547308|
|         443|   -6.362134|   -4.530983|   -4.698728|   -5.546923|
|         444|   -6.361360|   -4.530640|   -4.698189|   -5.546571|
|         445|   -6.360544|   -4.530324|   -4.697640|   -5.546241|
|         446|   -6.359687|   -4.530037|   -4.697083|   -5.545929|
|         447|   -6.358793|   -4.529775|   -4.696520|   -5.545635|
|         448|   -6.357865|   -4.529539|   -4.695953|   -5.545364|
|         449|   -6.356906|   -4.529327|   -4.695384|   -5.545114|
|         450|   -6.355920|   -4.529139|   -4.694815|   -5.544908|
|         451|   -6.354910|   -4.528973|   -4.694248|   -5.544740|
|         452|   -6.353880|   -4.528830|   -4.693684|   -5.544685|
|         453|   -6.352834|   -4.528708|   -4.693123|   -5.544644|
|         454|   -6.351777|   -4.528606|   -4.692567|   -5.544612|
|         455|   -6.350713|   -4.528521|   -4.692015|   -5.544594|
|         456|   -6.349645|   -4.528453|   -4.691467|   -5.544590|
|         457|   -6.348577|   -4.528399|   -4.690923|   -5.544595|
|         458|   -6.347515|   -4.528357|   -4.690382|   -5.544606|
|         459|   -6.346461|   -4.528324|   -4.689845|   -5.544622|
|         460|   -6.345420|   -4.528298|   -4.689309|   -5.544642|
|         461|   -6.344397|   -4.528277|   -4.688775|   -5.544666|
|         462|   -6.343394|   -4.528256|   -4.688243|   -5.544692|
|         463|   -6.342417|   -4.528233|   -4.687714|   -5.544722|
|         464|   -6.341469|   -4.528205|   -4.687187|   -5.544759|
|         465|   -6.340554|   -4.528170|   -4.686663|   -5.544797|
|         466|   -6.339676|   -4.528123|   -4.686140|   -5.544834|
|         467|   -6.338839|   -4.528062|   -4.685620|   -5.544872|
|         468|   -6.338046|   -4.527985|   -4.685103|   -5.544914|
|         469|   -6.337302|   -4.527888|   -4.684590|   -5.544960|
|         470|   -6.336609|   -4.527768|   -4.684080|   -5.545018|
|         471|   -6.335971|   -4.527623|   -4.683575|   -5.545086|
|         472|   -6.335392|   -4.527451|   -4.683075|   -5.545156|
|         473|   -6.334873|   -4.527249|   -4.682579|   -5.545226|
|         474|   -6.334418|   -4.527015|   -4.682088|   -5.545309|
|         475|   -6.334030|   -4.526745|   -4.681600|   -5.545395|
|         476|   -6.333710|   -4.526439|   -4.681117|   -5.545493|
|         477|   -6.333461|   -4.526095|   -4.680637|   -5.545594|
|         478|   -6.333284|   -4.525711|   -4.680160|   -5.545697|
|         479|   -6.333180|   -4.525286|   -4.679686|   -5.545803|
|         480|   -6.333152|   -4.524819|   -4.679213|   -5.545908|
|         481|   -6.333199|   -4.524308|   -4.678742|   -5.546014|
|         482|   -6.333323|   -4.523754|   -4.678272|   -5.546125|
|         483|   -6.333523|   -4.523155|   -4.677803|   -5.546240|
|         484|   -6.333800|   -4.522511|   -4.677334|   -5.546357|
|         485|   -6.334152|   -4.521821|   -4.676866|   -5.546472|
|         486|   -6.334580|   -4.521088|   -4.676398|   -5.546588|
|         487|   -6.335083|   -4.520310|   -4.675932|   -5.546705|
|         488|   -6.335658|   -4.519493|   -4.675464|   -5.546827|
|         489|   -6.336302|   -4.518639|   -4.674991|   -5.546961|
|         490|   -6.337015|   -4.517748|   -4.674511|   -5.547095|
|         491|   -6.337796|   -4.516820|   -4.674030|   -5.547230|
|         492|   -6.338645|   -4.515855|   -4.673551|   -5.547363|
|         493|   -6.339556|   -4.514857|   -4.673076|   -5.547495|
|         494|   -6.340526|   -4.513829|   -4.672604|   -5.547627|
|         495|   -6.341552|   -4.512774|   -4.672136|   -5.547763|
|         496|   -6.342631|   -4.511696|   -4.671674|   -5.547901|
|         497|   -6.343758|   -4.510598|   -4.671217|   -5.548042|
|         498|   -6.344929|   -4.509485|   -4.670767|   -5.548196|
|         499|   -6.346141|   -4.508360|   -4.670326|   -5.548351|
|         500|   -6.347391|   -4.507227|   -4.669894|   -5.548507|
|         501|   -6.348672|   -4.506092|   -4.669472|   -5.548666|
|         502|   -6.349982|   -4.504958|   -4.669059|   -5.548831|
|         503|   -6.351314|   -4.503831|   -4.668657|   -5.548999|
|         504|   -6.352664|   -4.502713|   -4.668264|   -5.549168|
|         505|   -6.354027|   -4.501609|   -4.667881|   -5.549338|
|         506|   -6.355397|   -4.500524|   -4.667506|   -5.549509|
|         507|   -6.356770|   -4.499462|   -4.667141|   -5.549680|
|         508|   -6.358139|   -4.498427|   -4.666783|   -5.549851|
|         509|   -6.359500|   -4.497422|   -4.666432|   -5.550024|
|         510|   -6.360847|   -4.496452|   -4.666089|   -5.550201|
|         511|   -6.362175|   -4.495519|   -4.665751|   -5.550381|
|         512|   -6.363479|   -4.494626|   -4.665419|   -5.550566|
|         513|   -6.364754|   -4.493778|   -4.665092|   -5.550759|
|         514|   -6.365995|   -4.492976|   -4.664768|   -5.550959|
|         515|   -6.367198|   -4.492224|   -4.664446|   -5.551161|
|         516|   -6.368358|   -4.491524|   -4.664125|   -5.551371|
|         517|   -6.369471|   -4.490879|   -4.663804|   -5.551585|
|         518|   -6.370532|   -4.490291|   -4.663480|   -5.551802|
|         519|   -6.371537|   -4.489762|   -4.663153|   -5.552025|
|         520|   -6.372484|   -4.489292|   -4.662821|   -5.552253|
|         521|   -6.373369|   -4.488884|   -4.662481|   -5.552488|
|         522|   -6.374189|   -4.488538|   -4.662133|   -5.552726|
|         523|   -6.374943|   -4.488255|   -4.661776|   -5.552968|
|         524|   -6.375627|   -4.488035|   -4.661407|   -5.553212|
|         525|   -6.376241|   -4.487879|   -4.661025|   -5.553459|
|         526|   -6.376783|   -4.487787|   -4.660629|   -5.553712|
|         527|   -6.377253|   -4.487758|   -4.660216|   -5.553973|
|         528|   -6.377650|   -4.487792|   -4.659788|   -5.554238|
|         529|   -6.377975|   -4.487888|   -4.659341|   -5.554508|
|         530|   -6.378228|   -4.488046|   -4.658876|   -5.554789|
|         531|   -6.378411|   -4.488263|   -4.658391|   -5.555081|
|         532|   -6.378524|   -4.488538|   -4.657886|   -5.555379|
|         533|   -6.378569|   -4.488869|   -4.657360|   -5.555682|
|         534|   -6.378549|   -4.489254|   -4.656812|   -5.555991|
|         535|   -6.378466|   -4.489691|   -4.656243|   -5.556307|
|         536|   -6.378322|   -4.490177|   -4.655650|   -5.556631|
|         537|   -6.378121|   -4.490709|   -4.655035|   -5.556962|
|         538|   -6.377865|   -4.491284|   -4.654398|   -5.557301|
|         539|   -6.377559|   -4.491899|   -4.653738|   -5.557647|
|         540|   -6.377205|   -4.492550|   -4.653055|   -5.558002|
|         541|   -6.376807|   -4.493235|   -4.652350|   -5.558365|
|         542|   -6.376369|   -4.493948|   -4.651621|   -5.558737|
|         543|   -6.375895|   -4.494687|   -4.650870|   -5.559116|
|         544|   -6.375389|   -4.495447|   -4.650096|   -5.559505|
|         545|   -6.374854|   -4.496223|   -4.649300|   -5.559902|
|         546|   -6.374295|   -4.497011|   -4.648481|   -5.560309|
|         547|   -6.373715|   -4.497808|   -4.647641|   -5.560724|
|         548|   -6.373119|   -4.498607|   -4.646780|   -5.561149|
|         549|   -6.372511|   -4.499404|   -4.645900|   -5.561583|
|         550|   -6.371893|   -4.500195|   -4.645001|   -5.562025|
|         551|   -6.371270|   -4.500974|   -4.644084|   -5.562475|
|         552|   -6.370647|   -4.501736|   -4.643150|   -5.562935|
|         553|   -6.370025|   -4.502477|   -4.642202|   -5.563404|
|         554|   -6.369409|   -4.503192|   -4.641239|   -5.563882|
|         555|   -6.368803|   -4.503875|   -4.640265|   -5.564368|
|         556|   -6.368209|   -4.504522|   -4.639280|   -5.564860|
|         557|   -6.367631|   -4.505128|   -4.638286|   -5.565361|
|         558|   -6.367072|   -4.505688|   -4.637284|   -5.565869|
|         559|   -6.366535|   -4.506196|   -4.636277|   -5.566382|
|         560|   -6.366023|   -4.506649|   -4.635267|   -5.566899|
|         561|   -6.365539|   -4.507042|   -4.634254|   -5.567421|
|         562|   -6.365085|   -4.507371|   -4.633242|   -5.567945|
|         563|   -6.364664|   -4.507631|   -4.632231|   -5.568474|
|         564|   -6.364279|   -4.507818|   -4.631224|   -5.569005|
|         565|   -6.363932|   -4.507929|   -4.630222|   -5.569537|
|         566|   -6.363627|   -4.507960|   -4.629227|   -5.570093|
|         567|   -6.363364|   -4.507908|   -4.628240|   -5.570670|
|         568|   -6.363147|   -4.507770|   -4.627263|   -5.571260|
|         569|   -6.362978|   -4.507542|   -4.626298|   -5.571854|
|         570|   -6.362860|   -4.507223|   -4.625346|   -5.572449|
|         571|   -6.362793|   -4.506809|   -4.624408|   -5.573039|
|         572|   -6.362782|   -4.506299|   -4.623486|   -5.573629|
|         573|   -6.362826|   -4.505691|   -4.622581|   -5.574215|
|         574|   -6.362929|   -4.504984|   -4.621694|   -5.574793|
|         575|   -6.363091|   -4.504175|   -4.620827|   -5.575372|
|         576|   -6.363316|   -4.503264|   -4.619980|   -5.575950|
|         577|   -6.363604|   -4.502252|   -4.619155|   -5.576522|
|         578|   -6.363957|   -4.501136|   -4.618353|   -5.577093|
|         579|   -6.364377|   -4.499918|   -4.617574|   -5.577659|
|         580|   -6.364864|   -4.498598|   -4.616821|   -5.578222|
|         581|   -6.365421|   -4.497176|   -4.616095|   -5.578780|
|         582|   -6.366047|   -4.495654|   -4.615396|   -5.579333|
|         583|   -6.366745|   -4.494033|   -4.614726|   -5.579877|
|         584|   -6.367516|   -4.492314|   -4.614086|   -5.580415|
|         585|   -6.368359|   -4.490500|   -4.613478|   -5.580944|
|         586|   -6.369276|   -4.488592|   -4.612903|   -5.581465|
|         587|   -6.370267|   -4.486594|   -4.612361|   -5.581980|
|         588|   -6.371332|   -4.484508|   -4.611853|   -5.582495|
|         589|   -6.372472|   -4.482337|   -4.611379|   -5.583011|
|         590|   -6.373686|   -4.480085|   -4.610942|   -5.583552|
|         591|   -6.374974|   -4.477756|   -4.610543|   -5.584088|
|         592|   -6.376337|   -4.475352|   -4.610183|   -5.584616|
|         593|   -6.377774|   -4.472879|   -4.609863|   -5.585133|
|         594|   -6.379283|   -4.470341|   -4.609582|   -5.585646|
|         595|   -6.380865|   -4.467742|   -4.609342|   -5.586151|
|         596|   -6.382518|   -4.465086|   -4.609142|   -5.586652|
|         597|   -6.384241|   -4.462379|   -4.608984|   -5.587153|
|         598|   -6.386034|   -4.459626|   -4.608867|   -5.587651|
|         599|   -6.387895|   -4.456830|   -4.608790|   -5.588144|
|         600|   -6.389822|   -4.453996|   -4.608756|   -5.588641|
|         601|   -6.391815|   -4.451130|   -4.608765|   -5.589140|
|         602|   -6.393871|   -4.448235|   -4.608815|   -5.589634|
|         603|   -6.395988|   -4.445317|   -4.608906|   -5.590119|
|         604|   -6.398165|   -4.442379|   -4.609037|   -5.590596|
|         605|   -6.400401|   -4.439426|   -4.609211|   -5.591060|
|         606|   -6.402692|   -4.436463|   -4.609426|   -5.591512|
|         607|   -6.405038|   -4.433492|   -4.609682|   -5.591961|
|         608|   -6.407435|   -4.430518|   -4.609978|   -5.592403|
|         609|   -6.409882|   -4.427546|   -4.610313|   -5.592839|
|         610|   -6.412376|   -4.424578|   -4.610686|   -5.593278|
|         611|   -6.414917|   -4.421617|   -4.611098|   -5.593713|
|         612|   -6.417500|   -4.418666|   -4.611547|   -5.594134|
|         613|   -6.420125|   -4.415728|   -4.612031|   -5.594544|
|         614|   -6.422789|   -4.412806|   -4.612550|   -5.594940|
|         615|   -6.425490|   -4.409902|   -4.613102|   -5.595337|
|         616|   -6.428226|   -4.407019|   -4.613686|   -5.595726|
|         617|   -6.430996|   -4.404157|   -4.614300|   -5.596116|
|         618|   -6.433797|   -4.401321|   -4.614942|   -5.596521|
|         619|   -6.436627|   -4.398511|   -4.615613|   -5.596946|
|         620|   -6.439486|   -4.395729|   -4.616310|   -5.597368|
|         621|   -6.442371|   -4.392974|   -4.617031|   -5.597810|
|         622|   -6.445282|   -4.390249|   -4.617775|   -5.598250|
|         623|   -6.448217|   -4.387553|   -4.618540|   -5.598683|
|         624|   -6.451174|   -4.384888|   -4.619325|   -5.599108|
|         625|   -6.454154|   -4.382253|   -4.620126|   -5.599522|
|         626|   -6.457154|   -4.379649|   -4.620944|   -5.599937|
|         627|   -6.460175|   -4.377077|   -4.621777|   -5.600342|
|         628|   -6.463215|   -4.374536|   -4.622622|   -5.600737|
|         629|   -6.466274|   -4.372028|   -4.623479|   -5.601128|
|         630|   -6.469351|   -4.369551|   -4.624344|   -5.601510|
|         631|   -6.472447|   -4.367107|   -4.625216|   -5.601891|
|         632|   -6.475560|   -4.364696|   -4.626094|   -5.602276|
|         633|   -6.478691|   -4.362318|   -4.626974|   -5.602662|
|         634|   -6.481838|   -4.359974|   -4.627856|   -5.603042|
|         635|   -6.485002|   -4.357662|   -4.628737|   -5.603413|
|         636|   -6.488183|   -4.355382|   -4.629615|   -5.603800|
|         637|   -6.491379|   -4.353134|   -4.630488|   -5.604189|
|         638|   -6.494591|   -4.350919|   -4.631354|   -5.604571|
|         639|   -6.497818|   -4.348735|   -4.632210|   -5.604985|
|         640|   -6.501059|   -4.346583|   -4.633055|   -5.605397|
|         641|   -6.504313|   -4.344462|   -4.633886|   -5.605802|
|         642|   -6.507580|   -4.342372|   -4.634701|   -5.606205|
|         643|   -6.510859|   -4.340313|   -4.635497|   -5.606608|
|         644|   -6.514148|   -4.338285|   -4.636271|   -5.607007|
|         645|   -6.517446|   -4.336287|   -4.637022|   -5.607397|
|         646|   -6.520752|   -4.334318|   -4.637745|   -5.607773|
|         647|   -6.524064|   -4.332378|   -4.638438|   -5.608134|
|         648|   -6.527379|   -4.330468|   -4.639098|   -5.608483|
|         649|   -6.530697|   -4.328585|   -4.639721|   -5.608821|
|         650|   -6.534014|   -4.326731|   -4.640306|   -5.609154|
|         651|   -6.537328|   -4.324904|   -4.640849|   -5.609513|
|         652|   -6.540638|   -4.323105|   -4.641346|   -5.609896|
|         653|   -6.543939|   -4.321332|   -4.641794|   -5.610302|
|         654|   -6.547224|   -4.319591|   -4.642136|   -5.610709|
|         655|   -6.550492|   -4.317876|   -4.642411|   -5.611116|
|         656|   -6.553747|   -4.316188|   -4.642630|   -5.611519|
|         657|   -6.556987|   -4.314527|   -4.642795|   -5.611912|
|         658|   -6.560207|   -4.312891|   -4.642900|   -5.612299|
|         659|   -6.563404|   -4.311280|   -4.642942|   -5.612683|
|         660|   -6.566577|   -4.309696|   -4.642918|   -5.613059|
|         661|   -6.569720|   -4.308134|   -4.642828|   -5.613425|
|         662|   -6.572831|   -4.306596|   -4.642670|   -5.613789|
|         663|   -6.575905|   -4.305085|   -4.642443|   -5.614161|
|         664|   -6.578938|   -4.303598|   -4.642144|   -5.614529|
|         665|   -6.581928|   -4.302134|   -4.641768|   -5.614889|
|         666|   -6.584871|   -4.300693|   -4.641316|   -5.615244|
|         667|   -6.587765|   -4.299275|   -4.640787|   -5.615594|
|         668|   -6.590604|   -4.297881|   -4.640184|   -5.615945|
|         669|   -6.593388|   -4.296514|   -4.639506|   -5.616296|
|         670|   -6.596112|   -4.295170|   -4.638751|   -5.616646|
|         671|   -6.598774|   -4.293847|   -4.637918|   -5.616985|
|         672|   -6.601372|   -4.292545|   -4.637007|   -5.617311|
|         673|   -6.603905|   -4.291264|   -4.636021|   -5.617634|
|         674|   -6.606370|   -4.290007|   -4.634960|   -5.618005|
|         675|   -6.608766|   -4.288769|   -4.633825|   -5.618492|
|         676|   -6.611092|   -4.287551|   -4.632613|   -5.619040|
|         677|   -6.613346|   -4.286353|   -4.631328|   -5.619597|
|         678|   -6.615530|   -4.285175|   -4.629973|   -5.620231|
|         679|   -6.617642|   -4.284019|   -4.628553|   -5.620911|
|         680|   -6.619681|   -4.282883|   -4.627071|   -5.621605|
|         681|   -6.621649|   -4.281767|   -4.625530|   -5.622306|
|         682|   -6.623546|   -4.280672|   -4.623932|   -5.623015|
|         683|   -6.625374|   -4.279601|   -4.622282|   -5.623754|
|         684|   -6.627135|   -4.278560|   -4.620590|   -5.624520|
|         685|   -6.628829|   -4.277544|   -4.618859|   -5.625328|
|         686|   -6.630458|   -4.276553|   -4.617086|   -5.626129|
|         687|   -6.632025|   -4.275589|   -4.615273|   -5.626919|
|         688|   -6.633534|   -4.274653|   -4.613432|   -5.627699|
|         689|   -6.634987|   -4.273749|   -4.611569|   -5.628462|
|         690|   -6.636387|   -4.272873|   -4.609684|   -5.629240|
|         691|   -6.637736|   -4.272023|   -4.607783|   -5.630048|
|         692|   -6.639036|   -4.271200|   -4.605870|   -5.630893|
|         693|   -6.640290|   -4.270403|   -4.603952|   -5.631757|
|         694|   -6.641497|   -4.269628|   -4.602035|   -5.632629|
|         695|   -6.642662|   -4.268872|   -4.600122|   -5.633489|
|         696|   -6.643785|   -4.268136|   -4.598216|   -5.634330|
|         697|   -6.644869|   -4.267419|   -4.596328|   -5.635210|
|         698|   -6.645917|   -4.266716|   -4.594460|   -5.636086|
|         699|   -6.646930|   -4.266026|   -4.592615|   -5.636937|
|         700|   -6.647912|   -4.265350|   -4.590797|   -5.637796|
|         701|   -6.648864|   -4.264689|   -4.589013|   -5.638617|
|         702|   -6.649789|   -4.264041|   -4.587257|   -5.639416|
|         703|   -6.650691|   -4.263410|   -4.585534|   -5.640191|
|         704|   -6.651575|   -4.262795|   -4.583854|   -5.640927|
|         705|   -6.652446|   -4.262201|   -4.582226|   -5.641644|
|         706|   -6.653307|   -4.261627|   -4.580655|   -5.642364|
|         707|   -6.654161|   -4.261075|   -4.579146|   -5.643091|
|         708|   -6.655008|   -4.260548|   -4.577703|   -5.643843|
|         709|   -6.655852|   -4.260049|   -4.576329|   -5.644586|
|         710|   -6.656692|   -4.259576|   -4.575028|   -5.645290|
|         711|   -6.657530|   -4.259131|   -4.573800|   -5.645950|
|         712|   -6.658368|   -4.258713|   -4.572649|   -5.646670|
|         713|   -6.659206|   -4.258324|   -4.571576|   -5.647407|
|         714|   -6.660045|   -4.257961|   -4.570582|   -5.648178|
|         715|   -6.660885|   -4.257623|   -4.569669|   -5.649082|
|         716|   -6.661727|   -4.257311|   -4.568837|   -5.650162|
|         717|   -6.662572|   -4.257024|   -4.568087|   -5.651291|
|         718|   -6.663420|   -4.256762|   -4.567421|   -5.652453|
|         719|   -6.664272|   -4.256527|   -4.566839|   -5.653694|
|         720|   -6.665130|   -4.256319|   -4.566337|   -5.654984|
|         721|   -6.665993|   -4.256140|   -4.565917|   -5.656280|
|         722|   -6.666861|   -4.255992|   -4.565577|   -5.657572|
|         723|   -6.667734|   -4.255876|   -4.565314|   -5.658861|
|         724|   -6.668611|   -4.255794|   -4.565127|   -5.660142|
|         725|   -6.669490|   -4.255748|   -4.565011|   -5.661425|
|         726|   -6.670369|   -4.255739|   -4.564967|   -5.662700|
|         727|   -6.671248|   -4.255768|   -4.564988|   -5.664004|
|         728|   -6.672124|   -4.255837|   -4.565073|   -5.665319|
|         729|   -6.672996|   -4.255947|   -4.565216|   -5.666627|
|         730|   -6.673859|   -4.256098|   -4.565418|   -5.667925|
|         731|   -6.674713|   -4.256290|   -4.565671|   -5.669256|
|         732|   -6.675553|   -4.256524|   -4.565973|   -5.670627|
|         733|   -6.676378|   -4.256800|   -4.566319|   -5.672009|
|         734|   -6.677184|   -4.257117|   -4.566704|   -5.673393|
|         735|   -6.677967|   -4.257474|   -4.567128|   -5.674780|
|         736|   -6.678728|   -4.257871|   -4.567582|   -5.676164|
|         737|   -6.679461|   -4.258308|   -4.568066|   -5.677535|
|         738|   -6.680165|   -4.258785|   -4.568574|   -5.678913|
|         739|   -6.680838|   -4.259301|   -4.569102|   -5.680294|
|         740|   -6.681477|   -4.259856|   -4.569654|   -5.681661|
|         741|   -6.682080|   -4.260451|   -4.570220|   -5.683019|
|         742|   -6.682645|   -4.261085|   -4.570802|   -5.684377|
|         743|   -6.683168|   -4.261758|   -4.571398|   -5.685725|
|         744|   -6.683649|   -4.262469|   -4.572003|   -5.687085|
|         745|   -6.684085|   -4.263218|   -4.572620|   -5.688510|
|         746|   -6.684474|   -4.264006|   -4.573244|   -5.690017|
|         747|   -6.684812|   -4.264829|   -4.573873|   -5.691560|
|         748|   -6.685097|   -4.265688|   -4.574511|   -5.693123|
|         749|   -6.685327|   -4.266581|   -4.575152|   -5.694703|
|         750|   -6.685504|   -4.267508|   -4.575794|   -5.696288|
|         751|   -6.685625|   -4.268466|   -4.576446|   -5.697887|
|         752|   -6.685692|   -4.269455|   -4.577098|   -5.699473|
|         753|   -6.685703|   -4.270473|   -4.577756|   -5.701047|
|         754|   -6.685657|   -4.271519|   -4.578417|   -5.702612|
|         755|   -6.685556|   -4.272592|   -4.579080|   -5.704180|
|         756|   -6.685398|   -4.273689|   -4.579746|   -5.705752|
|         757|   -6.685185|   -4.274809|   -4.580415|   -5.707325|
|         758|   -6.684917|   -4.275950|   -4.581083|   -5.708899|
|         759|   -6.684594|   -4.277113|   -4.581748|   -5.710468|
|         760|   -6.684218|   -4.278293|   -4.582412|   -5.712038|
|         761|   -6.683789|   -4.279491|   -4.583066|   -5.713606|
|         762|   -6.683308|   -4.280704|   -4.583710|   -5.715168|
|         763|   -6.682775|   -4.281930|   -4.584341|   -5.716727|
|         764|   -6.682194|   -4.283167|   -4.584960|   -5.718288|
|         765|   -6.681568|   -4.284414|   -4.585561|   -5.719850|
|         766|   -6.680901|   -4.285667|   -4.586149|   -5.721412|
|         767|   -6.680196|   -4.286924|   -4.586717|   -5.722981|
|         768|   -6.679457|   -4.288183|   -4.587267|   -5.724551|
|         769|   -6.678689|   -4.289440|   -4.587796|   -5.726116|
|         770|   -6.677893|   -4.290693|   -4.588304|   -5.727678|
|         771|   -6.677075|   -4.291940|   -4.588788|   -5.729237|
|         772|   -6.676236|   -4.293180|   -4.589246|   -5.730791|
|         773|   -6.675380|   -4.294408|   -4.589681|   -5.732339|
|         774|   -6.674512|   -4.295623|   -4.590083|   -5.733881|
|         775|   -6.673637|   -4.296823|   -4.590460|   -5.735414|
|         776|   -6.672758|   -4.298005|   -4.590806|   -5.736938|
|         777|   -6.671880|   -4.299168|   -4.591125|   -5.738461|
|         778|   -6.671009|   -4.300309|   -4.591415|   -5.739976|
|         779|   -6.670148|   -4.301426|   -4.591675|   -5.741480|
|         780|   -6.669302|   -4.302517|   -4.591910|   -5.742981|
|         781|   -6.668475|   -4.303581|   -4.592111|   -5.744479|
|         782|   -6.667671|   -4.304615|   -4.592284|   -5.745966|
|         783|   -6.666897|   -4.305619|   -4.592425|   -5.747448|
|         784|   -6.666155|   -4.306590|   -4.592531|   -5.748919|
|         785|   -6.665448|   -4.307528|   -4.592609|   -5.750378|
|         786|   -6.664781|   -4.308433|   -4.592651|   -5.751827|
|         787|   -6.664159|   -4.309302|   -4.592660|   -5.753262|
|         788|   -6.663584|   -4.310135|   -4.592636|   -5.754684|
|         789|   -6.663058|   -4.310932|   -4.592575|   -5.756095|
|         790|   -6.662583|   -4.311691|   -4.592482|   -5.757491|
|         791|   -6.662160|   -4.312412|   -4.592353|   -5.758875|
|         792|   -6.661790|   -4.313095|   -4.592187|   -5.760244|
|         793|   -6.661475|   -4.313739|   -4.591988|   -5.761599|
|         794|   -6.661213|   -4.314344|   -4.591752|   -5.762939|
|         795|   -6.661006|   -4.314912|   -4.591478|   -5.764265|
|         796|   -6.660854|   -4.315440|   -4.591168|   -5.765579|
|         797|   -6.660756|   -4.315930|   -4.590819|   -5.766882|
|         798|   -6.660711|   -4.316383|   -4.590430|   -5.768173|
|         799|   -6.660718|   -4.316797|   -4.590006|   -5.769452|
|         800|   -6.660777|   -4.317176|   -4.589538|   -5.770716|
|         801|   -6.660884|   -4.317518|   -4.589034|   -5.771968|
|         802|   -6.661038|   -4.317824|   -4.588491|   -5.773207|
|         803|   -6.661237|   -4.318097|   -4.587907|   -5.774435|
|         804|   -6.661476|   -4.318337|   -4.587283|   -5.775650|
|         805|   -6.661754|   -4.318543|   -4.586622|   -5.776852|
|         806|   -6.662065|   -4.318720|   -4.585920|   -5.778041|
|         807|   -6.662406|   -4.318866|   -4.585177|   -5.779218|
|         808|   -6.662773|   -4.318984|   -4.584398|   -5.780382|
|         809|   -6.663160|   -4.319076|   -4.583580|   -5.781533|
|         810|   -6.663563|   -4.319141|   -4.582725|   -5.782673|
|         811|   -6.663975|   -4.319183|   -4.581834|   -5.783801|
|         812|   -6.664391|   -4.319203|   -4.580907|   -5.784918|
|         813|   -6.664805|   -4.319201|   -4.579942|   -5.786023|
|         814|   -6.665209|   -4.319181|   -4.578945|   -5.787116|
|         815|   -6.665597|   -4.319143|   -4.577914|   -5.788197|
|         816|   -6.665962|   -4.319090|   -4.576849|   -5.789268|
|         817|   -6.666298|   -4.319023|   -4.575752|   -5.790329|
|         818|   -6.666595|   -4.318943|   -4.574626|   -5.791382|
|         819|   -6.666847|   -4.318854|   -4.573468|   -5.792425|
|         820|   -6.667046|   -4.318756|   -4.572281|   -5.793459|
|         821|   -6.667184|   -4.318652|   -4.571068|   -5.794484|
|         822|   -6.667254|   -4.318543|   -4.569828|   -5.795503|
|         823|   -6.667247|   -4.318431|   -4.568564|   -5.796516|
|         824|   -6.667156|   -4.318319|   -4.567276|   -5.797521|
|         825|   -6.666974|   -4.318207|   -4.565969|   -5.798518|
|         826|   -6.666692|   -4.318098|   -4.564641|   -5.799506|
|         827|   -6.666310|   -4.317993|   -4.563293|   -5.800485|
|         828|   -6.665818|   -4.317893|   -4.561928|   -5.801456|
|         829|   -6.665206|   -4.317802|   -4.560548|   -5.802422|
|         830|   -6.664474|   -4.317720|   -4.559153|   -5.803387|
|         831|   -6.663615|   -4.317649|   -4.557745|   -5.804346|
|         832|   -6.662626|   -4.317590|   -4.556326|   -5.805302|
|         833|   -6.661502|   -4.317545|   -4.554897|   -5.806255|
|         834|   -6.660238|   -4.317515|   -4.553461|   -5.807205|
|         835|   -6.658832|   -4.317501|   -4.552017|   -5.808147|
|         836|   -6.657279|   -4.317504|   -4.550569|   -5.809082|
|         837|   -6.655577|   -4.317527|   -4.549118|   -5.810012|
|         838|   -6.653724|   -4.317569|   -4.547664|   -5.810935|
|         839|   -6.651720|   -4.317631|   -4.546212|   -5.811849|
|         840|   -6.649564|   -4.317714|   -4.544763|   -5.812759|
|         841|   -6.647257|   -4.317820|   -4.543318|   -5.813665|
|         842|   -6.644799|   -4.317949|   -4.541877|   -5.814563|
|         843|   -6.642193|   -4.318102|   -4.540445|   -5.815453|
|         844|   -6.639442|   -4.318279|   -4.539020|   -5.816338|
|         845|   -6.636549|   -4.318482|   -4.537607|   -5.817221|
|         846|   -6.633518|   -4.318711|   -4.536206|   -5.818099|
|         847|   -6.630353|   -4.318967|   -4.534817|   -5.818973|
|         848|   -6.627059|   -4.319250|   -4.533442|   -5.819842|
|         849|   -6.623643|   -4.319562|   -4.532080|   -5.820704|
|         850|   -6.620110|   -4.319902|   -4.530735|   -5.821557|
|         851|   -6.616465|   -4.320271|   -4.529405|   -5.822402|
|         852|   -6.612717|   -4.320669|   -4.528095|   -5.823238|
|         853|   -6.608870|   -4.321096|   -4.526804|   -5.824068|
|         854|   -6.604933|   -4.321552|   -4.525533|   -5.824895|
|         855|   -6.600912|   -4.322037|   -4.524284|   -5.825720|
|         856|   -6.596813|   -4.322550|   -4.523059|   -5.826539|
|         857|   -6.592644|   -4.323092|   -4.521857|   -5.827350|
|         858|   -6.588412|   -4.323663|   -4.520679|   -5.828153|
|         859|   -6.584124|   -4.324263|   -4.519527|   -5.828947|
|         860|   -6.579786|   -4.324892|   -4.518399|   -5.829732|
|         861|   -6.575405|   -4.325550|   -4.517298|   -5.830509|
|         862|   -6.570989|   -4.326237|   -4.516223|   -5.831279|
|         863|   -6.566542|   -4.326953|   -4.515174|   -5.832047|
|         864|   -6.562072|   -4.327697|   -4.514153|   -5.832810|
|         865|   -6.557583|   -4.328471|   -4.513161|   -5.833569|
|         866|   -6.553081|   -4.329272|   -4.512197|   -5.834326|
|         867|   -6.548570|   -4.330101|   -4.511263|   -5.835078|
|         868|   -6.544057|   -4.330957|   -4.510359|   -5.835822|
|         869|   -6.539545|   -4.331839|   -4.509488|   -5.836557|
|         870|   -6.535041|   -4.332747|   -4.508647|   -5.837286|
|         871|   -6.530548|   -4.333680|   -4.507839|   -5.838008|
|         872|   -6.526071|   -4.334636|   -4.507064|   -5.838721|
|         873|   -6.521614|   -4.335615|   -4.506323|   -5.839426|
|         874|   -6.517180|   -4.336616|   -4.505614|   -5.840122|
|         875|   -6.512774|   -4.337640|   -4.504939|   -5.840813|
|         876|   -6.508398|   -4.338684|   -4.504299|   -5.841497|
|         877|   -6.504055|   -4.339746|   -4.503694|   -5.842175|
|         878|   -6.499748|   -4.340825|   -4.503127|   -5.842845|
|         879|   -6.495482|   -4.341919|   -4.502602|   -5.843509|
|         880|   -6.491262|   -4.343024|   -4.502117|   -5.844165|
|         881|   -6.487091|   -4.344141|   -4.501671|   -5.844814|
|         882|   -6.482973|   -4.345269|   -4.501265|   -5.845456|
|         883|   -6.478909|   -4.346405|   -4.500896|   -5.846093|
|         884|   -6.474901|   -4.347553|   -4.500561|   -5.846725|
|         885|   -6.470950|   -4.348711|   -4.500259|   -5.847353|
|         886|   -6.467054|   -4.349882|   -4.499982|   -5.847978|
|         887|   -6.463213|   -4.351065|   -4.499730|   -5.848597|
|         888|   -6.459428|   -4.352260|   -4.499502|   -5.849211|
|         889|   -6.455698|   -4.353468|   -4.499295|   -5.849819|
|         890|   -6.452022|   -4.354686|   -4.499111|   -5.850420|
|         891|   -6.448400|   -4.355914|   -4.498949|   -5.851015|
|         892|   -6.444833|   -4.357151|   -4.498811|   -5.851605|
|         893|   -6.441318|   -4.358396|   -4.498694|   -5.852191|
|         894|   -6.437856|   -4.359648|   -4.498601|   -5.852772|
|         895|   -6.434447|   -4.360906|   -4.498531|   -5.853348|
|         896|   -6.431091|   -4.362170|   -4.498487|   -5.853921|
|         897|   -6.427787|   -4.363436|   -4.498471|   -5.854490|
|         898|   -6.424535|   -4.364703|   -4.498486|   -5.855057|
|         899|   -6.421334|   -4.365973|   -4.498531|   -5.855622|
|         900|   -6.418185|   -4.367244|   -4.498604|   -5.856184|
|         901|   -6.415087|   -4.368516|   -4.498705|   -5.856745|
|         902|   -6.412043|   -4.369791|   -4.498828|   -5.857304|
|         903|   -6.409050|   -4.371068|   -4.498974|   -5.857861|
|         904|   -6.406112|   -4.372348|   -4.499139|   -5.858417|
|         905|   -6.403227|   -4.373629|   -4.499323|   -5.858972|
|         906|   -6.400396|   -4.374913|   -4.499521|   -5.859526|
|         907|   -6.397619|   -4.376196|   -4.499734|   -5.860080|
|         908|   -6.394895|   -4.377481|   -4.499960|   -5.860633|
|         909|   -6.392224|   -4.378764|   -4.500198|   -5.861187|
|         910|   -6.389607|   -4.380048|   -4.500447|   -5.861741|
|         911|   -6.387042|   -4.381327|   -4.500709|   -5.862296|
|         912|   -6.384530|   -4.382602|   -4.500982|   -5.862851|
|         913|   -6.382070|   -4.383872|   -4.501270|   -5.863408|
|         914|   -6.379661|   -4.385134|   -4.501571|   -5.863966|
|         915|   -6.377303|   -4.386389|   -4.501887|   -5.864527|
|         916|   -6.374996|   -4.387635|   -4.502215|   -5.865091|
|         917|   -6.372737|   -4.388875|   -4.502557|   -5.865659|
|         918|   -6.370528|   -4.390106|   -4.502912|   -5.866230|
|         919|   -6.368366|   -4.391330|   -4.503281|   -5.866805|
|         920|   -6.366250|   -4.392546|   -4.503661|   -5.867384|
|         921|   -6.364179|   -4.393755|   -4.504055|   -5.867967|
|         922|   -6.362152|   -4.394955|   -4.504463|   -5.868556|
|         923|   -6.360168|   -4.396148|   -4.504884|   -5.869149|
|         924|   -6.358227|   -4.397332|   -4.505318|   -5.869749|
|         925|   -6.356328|   -4.398509|   -4.505765|   -5.870354|
|         926|   -6.354471|   -4.399679|   -4.506225|   -5.870965|
|         927|   -6.352654|   -4.400843|   -4.506699|   -5.871582|
|         928|   -6.350877|   -4.402000|   -4.507183|   -5.872205|
|         929|   -6.349143|   -4.403151|   -4.507673|   -5.872835|
|         930|   -6.347454|   -4.404293|   -4.508139|   -5.873474|
|         931|   -6.345811|   -4.405430|   -4.508610|   -5.874119|
|         932|   -6.344225|   -4.406559|   -4.509088|   -5.874770|
|         933|   -6.342702|   -4.407678|   -4.509571|   -5.875428|
|         934|   -6.341243|   -4.408786|   -4.510062|   -5.876092|
|         935|   -6.339846|   -4.409880|   -4.510559|   -5.876762|
|         936|   -6.338511|   -4.410960|   -4.511065|   -5.877440|
|         937|   -6.337233|   -4.412027|   -4.511580|   -5.878125|
|         938|   -6.336011|   -4.413081|   -4.512103|   -5.878817|
|         939|   -6.334840|   -4.414124|   -4.512632|   -5.879517|
|         940|   -6.333717|   -4.415156|   -4.513167|   -5.880226|
|         941|   -6.332638|   -4.416180|   -4.513707|   -5.880944|
|         942|   -6.331600|   -4.417197|   -4.514252|   -5.881670|
|         943|   -6.330600|   -4.418206|   -4.514802|   -5.882407|
|         944|   -6.329636|   -4.419209|   -4.515360|   -5.883153|
|         945|   -6.328706|   -4.420203|   -4.515926|   -5.883909|
|         946|   -6.327808|   -4.421191|   -4.516504|   -5.884675|
|         947|   -6.326943|   -4.422171|   -4.517094|   -5.885451|
|         948|   -6.326109|   -4.423145|   -4.517695|   -5.886237|
|         949|   -6.325305|   -4.424110|   -4.518308|   -5.887034|
|         950|   -6.324532|   -4.425069|   -4.518933|   -5.887841|
|         951|   -6.323789|   -4.426022|   -4.519569|   -5.888659|
|         952|   -6.323075|   -4.426971|   -4.520215|   -5.889488|
|         953|   -6.322392|   -4.427916|   -4.520870|   -5.890328|
|         954|   -6.321738|   -4.428858|   -4.521535|   -5.891179|
|         955|   -6.321114|   -4.429797|   -4.522208|   -5.892042|
|         956|   -6.320520|   -4.430733|   -4.522890|   -5.892916|
|         957|   -6.319957|   -4.431666|   -4.523580|   -5.893801|
|         958|   -6.319425|   -4.432596|   -4.524279|   -5.894698|
|         959|   -6.318923|   -4.433522|   -4.524984|   -5.895606|
|         960|   -6.318452|   -4.434446|   -4.525698|   -5.896525|
|         961|   -6.318010|   -4.435365|   -4.526423|   -5.897455|
|         962|   -6.317599|   -4.436280|   -4.527159|   -5.898395|
|         963|   -6.317218|   -4.437192|   -4.527907|   -5.899346|
|         964|   -6.316865|   -4.438100|   -4.528668|   -5.900307|
|         965|   -6.316542|   -4.439005|   -4.529442|   -5.901276|
|         966|   -6.316247|   -4.439910|   -4.530227|   -5.902255|
|         967|   -6.315979|   -4.440813|   -4.531025|   -5.903241|
|         968|   -6.315739|   -4.441713|   -4.531835|   -5.904235|
|         969|   -6.315526|   -4.442614|   -4.532655|   -5.905236|
|         970|   -6.315339|   -4.443514|   -4.533486|   -5.906244|
|         971|   -6.315177|   -4.444415|   -4.534326|   -5.907258|
|         972|   -6.315040|   -4.445317|   -4.535175|   -5.908277|
|         973|   -6.314926|   -4.446223|   -4.536033|   -5.909301|
|         974|   -6.314835|   -4.447131|   -4.536899|   -5.910330|
|         975|   -6.314765|   -4.448043|   -4.537772|   -5.911362|
[...]
|        9749|   -7.619684|   -6.105225|   -6.399083|   -6.262828|
|        9750|   -7.619412|   -6.107649|   -6.398962|   -6.262755|
|        9751|   -7.619145|   -6.110070|   -6.398844|   -6.262682|
|        9752|   -7.618882|   -6.112487|   -6.398729|   -6.262607|
|        9753|   -7.618624|   -6.114901|   -6.398616|   -6.262532|
|        9754|   -7.618370|   -6.117310|   -6.398505|   -6.262456|
|        9755|   -7.618121|   -6.119714|   -6.398396|   -6.262379|
|        9756|   -7.617877|   -6.122112|   -6.398290|   -6.262301|
|        9757|   -7.617637|   -6.124505|   -6.398187|   -6.262222|
|        9758|   -7.617402|   -6.126891|   -6.398086|   -6.262143|
|        9759|   -7.617171|   -6.129269|   -6.397987|   -6.262063|
|        9760|   -7.616945|   -6.131641|   -6.397891|   -6.261982|
|        9761|   -7.616723|   -6.134004|   -6.397797|   -6.261901|
|        9762|   -7.616506|   -6.136358|   -6.397706|   -6.261819|
|        9763|   -7.616293|   -6.138703|   -6.397617|   -6.261737|
|        9764|   -7.616085|   -6.141038|   -6.397531|   -6.261655|
|        9765|   -7.615882|   -6.143362|   -6.397447|   -6.261572|
|        9766|   -7.615683|   -6.145675|   -6.397366|   -6.261489|
|        9767|   -7.615488|   -6.147976|   -6.397288|   -6.261405|
|        9768|   -7.615298|   -6.150264|   -6.397212|   -6.261320|
|        9769|   -7.615112|   -6.152539|   -6.397138|   -6.261235|
|        9770|   -7.614931|   -6.154800|   -6.397067|   -6.261149|
|        9771|   -7.614754|   -6.157046|   -6.396999|   -6.261062|
|        9772|   -7.614582|   -6.159277|   -6.396933|   -6.260974|
|        9773|   -7.614414|   -6.161491|   -6.396870|   -6.260886|
|        9774|   -7.614250|   -6.163689|   -6.396809|   -6.260798|
|        9775|   -7.614091|   -6.165869|   -6.396751|   -6.260710|
|        9776|   -7.613937|   -6.168030|   -6.396695|   -6.260623|
|        9777|   -7.613787|   -6.170172|   -6.396643|   -6.260535|
|        9778|   -7.613641|   -6.172294|   -6.396593|   -6.260446|
|        9779|   -7.613499|   -6.174395|   -6.396545|   -6.260357|
|        9780|   -7.613362|   -6.176474|   -6.396500|   -6.260269|
|        9781|   -7.613230|   -6.178531|   -6.396458|   -6.260180|
|        9782|   -7.613102|   -6.180564|   -6.396419|   -6.260090|
|        9783|   -7.612978|   -6.182573|   -6.396382|   -6.260000|
|        9784|   -7.612858|   -6.184557|   -6.396348|   -6.259909|
|        9785|   -7.612743|   -6.186515|   -6.396317|   -6.259817|
|        9786|   -7.612633|   -6.188446|   -6.396288|   -6.259724|
|        9787|   -7.612526|   -6.190349|   -6.396263|   -6.259630|
|        9788|   -7.612425|   -6.192224|   -6.396240|   -6.259536|
|        9789|   -7.612327|   -6.194069|   -6.396219|   -6.259441|
|        9790|   -7.612234|   -6.195884|   -6.396202|   -6.259345|
|        9791|   -7.612145|   -6.197667|   -6.396187|   -6.259249|
|        9792|   -7.612060|   -6.199418|   -6.396175|   -6.259153|
|        9793|   -7.611980|   -6.201136|   -6.396166|   -6.259056|
|        9794|   -7.611904|   -6.202820|   -6.396160|   -6.258959|
|        9795|   -7.611833|   -6.204470|   -6.396157|   -6.258860|
|        9796|   -7.611766|   -6.206083|   -6.396156|   -6.258762|
|        9797|   -7.611703|   -6.207660|   -6.396158|   -6.258662|
|        9798|   -7.611644|   -6.209200|   -6.396163|   -6.258562|
|        9799|   -7.611590|   -6.210701|   -6.396171|   -6.258460|
|        9800|   -7.611540|   -6.212163|   -6.396182|   -6.258358|
|        9801|   -7.611494|   -6.213585|   -6.396196|   -6.258256|
|        9802|   -7.611453|   -6.214966|   -6.396213|   -6.258152|
|        9803|   -7.611416|   -6.216306|   -6.396232|   -6.258048|
|        9804|   -7.611383|   -6.217603|   -6.396255|   -6.257943|
|        9805|   -7.611355|   -6.218857|   -6.396280|   -6.257837|
|        9806|   -7.611331|   -6.220068|   -6.396309|   -6.257733|
|        9807|   -7.611311|   -6.221233|   -6.396340|   -6.257629|
|        9808|   -7.611296|   -6.222353|   -6.396374|   -6.257523|
|        9809|   -7.611285|   -6.223428|   -6.396412|   -6.257418|
|        9810|   -7.611278|   -6.224455|   -6.396452|   -6.257312|
|        9811|   -7.611275|   -6.225436|   -6.396495|   -6.257206|
|        9812|   -7.611277|   -6.226368|   -6.396542|   -6.257099|
|        9813|   -7.611283|   -6.227252|   -6.396591|   -6.256991|
|        9814|   -7.611293|   -6.228087|   -6.396643|   -6.256883|
|        9815|   -7.611308|   -6.228872|   -6.396699|   -6.256774|
|        9816|   -7.611327|   -6.229608|   -6.396757|   -6.256667|
|        9817|   -7.611350|   -6.230293|   -6.396819|   -6.256558|
|        9818|   -7.611377|   -6.230927|   -6.396884|   -6.256450|
|        9819|   -7.611409|   -6.231510|   -6.396951|   -6.256343|
|        9820|   -7.611445|   -6.232041|   -6.397022|   -6.256234|
|        9821|   -7.611485|   -6.232521|   -6.397096|   -6.256125|
|        9822|   -7.611529|   -6.232948|   -6.397173|   -6.256015|
|        9823|   -7.611578|   -6.233324|   -6.397253|   -6.255904|
|        9824|   -7.611631|   -6.233646|   -6.397336|   -6.255793|
|        9825|   -7.611689|   -6.233917|   -6.397423|   -6.255680|
|        9826|   -7.611750|   -6.234134|   -6.397512|   -6.255567|
|        9827|   -7.611816|   -6.234299|   -6.397605|   -6.255453|
|        9828|   -7.611886|   -6.234411|   -6.397700|   -6.255338|
|        9829|   -7.611961|   -6.234470|   -6.397799|   -6.255223|
|        9830|   -7.612039|   -6.234477|   -6.397901|   -6.255107|
|        9831|   -7.612122|   -6.234430|   -6.398006|   -6.254990|
|        9832|   -7.612210|   -6.234332|   -6.398114|   -6.254877|
|        9833|   -7.612301|   -6.234181|   -6.398226|   -6.254765|
|        9834|   -7.612397|   -6.233979|   -6.398340|   -6.254655|
|        9835|   -7.612497|   -6.233724|   -6.398458|   -6.254546|
|        9836|   -7.612601|   -6.233418|   -6.398579|   -6.254439|
|        9837|   -7.612710|   -6.233061|   -6.398703|   -6.254333|
|        9838|   -7.612823|   -6.232654|   -6.398831|   -6.254228|
|        9839|   -7.612940|   -6.232196|   -6.398961|   -6.254123|
|        9840|   -7.613061|   -6.231688|   -6.399095|   -6.254020|
|        9841|   -7.613187|   -6.231131|   -6.399232|   -6.253923|
|        9842|   -7.613317|   -6.230525|   -6.399372|   -6.253829|
|        9843|   -7.613451|   -6.229871|   -6.399516|   -6.253737|
|        9844|   -7.613590|   -6.229169|   -6.399662|   -6.253647|
|        9845|   -7.613733|   -6.228420|   -6.399812|   -6.253562|
|        9846|   -7.613880|   -6.227624|   -6.399965|   -6.253482|
|        9847|   -7.614031|   -6.226783|   -6.400122|   -6.253404|
|        9848|   -7.614187|   -6.225896|   -6.400281|   -6.253329|
|        9849|   -7.614347|   -6.224965|   -6.400444|   -6.253254|
|        9850|   -7.614512|   -6.223990|   -6.400610|   -6.253179|
|        9851|   -7.614680|   -6.222973|   -6.400779|   -6.253107|
|        9852|   -7.614853|   -6.221913|   -6.400952|   -6.253036|
|        9853|   -7.615030|   -6.220812|   -6.401127|   -6.252963|
|        9854|   -7.615212|   -6.219670|   -6.401306|   -6.252889|
|        9855|   -7.615398|   -6.218489|   -6.401488|   -6.252818|
|        9856|   -7.615588|   -6.217268|   -6.401674|   -6.252749|
|        9857|   -7.615783|   -6.216010|   -6.401862|   -6.252679|
|        9858|   -7.615982|   -6.214714|   -6.402054|   -6.252610|
|        9859|   -7.616185|   -6.213381|   -6.402249|   -6.252540|
|        9860|   -7.616392|   -6.212014|   -6.402448|   -6.252470|
|        9861|   -7.616604|   -6.210611|   -6.402649|   -6.252401|
|        9862|   -7.616820|   -6.209175|   -6.402854|   -6.252332|
|        9863|   -7.617041|   -6.207706|   -6.403062|   -6.252264|
|        9864|   -7.617266|   -6.206204|   -6.403274|   -6.252197|
|        9865|   -7.617495|   -6.204672|   -6.403488|   -6.252130|
|        9866|   -7.617729|   -6.203109|   -6.403706|   -6.252064|
|        9867|   -7.617967|   -6.201517|   -6.403927|   -6.251999|
|        9868|   -7.618209|   -6.199897|   -6.404152|   -6.251933|
|        9869|   -7.618456|   -6.198249|   -6.404379|   -6.251868|
|        9870|   -7.618707|   -6.196573|   -6.404610|   -6.251804|
|        9871|   -7.618963|   -6.194873|   -6.404845|   -6.251740|
|        9872|   -7.619223|   -6.193146|   -6.405082|   -6.251677|
|        9873|   -7.619487|   -6.191396|   -6.405323|   -6.251614|
|        9874|   -7.619756|   -6.189623|   -6.405567|   -6.251552|
|        9875|   -7.620029|   -6.187826|   -6.405814|   -6.251493|
|        9876|   -7.620307|   -6.186009|   -6.406064|   -6.251435|
|        9877|   -7.620589|   -6.184170|   -6.406318|   -6.251379|
|        9878|   -7.620876|   -6.182311|   -6.406575|   -6.251324|
|        9879|   -7.621167|   -6.180433|   -6.406835|   -6.251269|
|        9880|   -7.621462|   -6.178536|   -6.407099|   -6.251216|
|        9881|   -7.621762|   -6.176621|   -6.407365|   -6.251165|
|        9882|   -7.622066|   -6.174690|   -6.407635|   -6.251117|
|        9883|   -7.622375|   -6.172742|   -6.407908|   -6.251072|
|        9884|   -7.622689|   -6.170779|   -6.408184|   -6.251028|
|        9885|   -7.623007|   -6.168801|   -6.408464|   -6.250986|
|        9886|   -7.623329|   -6.166808|   -6.408746|   -6.250946|
|        9887|   -7.623656|   -6.164803|   -6.409032|   -6.250907|
|        9888|   -7.623988|   -6.162784|   -6.409321|   -6.250872|
|        9889|   -7.624324|   -6.160754|   -6.409613|   -6.250838|
|        9890|   -7.624664|   -6.158712|   -6.409909|   -6.250807|
|        9891|   -7.625009|   -6.156659|   -6.410207|   -6.250778|
|        9892|   -7.625359|   -6.154596|   -6.410509|   -6.250754|
|        9893|   -7.625714|   -6.152524|   -6.410814|   -6.250732|
|        9894|   -7.626072|   -6.150443|   -6.411121|   -6.250712|
|        9895|   -7.626436|   -6.148353|   -6.411432|   -6.250695|
|        9896|   -7.626804|   -6.146255|   -6.411746|   -6.250679|
|        9897|   -7.627177|   -6.144151|   -6.412064|   -6.250664|
|        9898|   -7.627554|   -6.142039|   -6.412384|   -6.250650|
|        9899|   -7.627937|   -6.139921|   -6.412707|   -6.250637|
|        9900|   -7.628323|   -6.137798|   -6.413034|   -6.250626|
|        9901|   -7.628715|   -6.135669|   -6.413363|   -6.250615|
|        9902|   -7.629111|   -6.133535|   -6.413695|   -6.250606|
|        9903|   -7.629512|   -6.131397|   -6.414031|   -6.250597|
|        9904|   -7.629917|   -6.129256|   -6.414369|   -6.250588|
|        9905|   -7.630328|   -6.127111|   -6.414711|   -6.250581|
|        9906|   -7.630743|   -6.124963|   -6.415055|   -6.250575|
|        9907|   -7.631162|   -6.122813|   -6.415403|   -6.250569|
|        9908|   -7.631587|   -6.120660|   -6.415753|   -6.250564|
|        9909|   -7.632016|   -6.118506|   -6.416106|   -6.250560|
|        9910|   -7.632451|   -6.116351|   -6.416462|   -6.250556|
|        9911|   -7.632890|   -6.114194|   -6.416821|   -6.250553|
|        9912|   -7.633333|   -6.112037|   -6.417183|   -6.250550|
|        9913|   -7.633782|   -6.109880|   -6.417548|   -6.250547|
|        9914|   -7.634235|   -6.107723|   -6.417915|   -6.250544|
|        9915|   -7.634694|   -6.105566|   -6.418286|   -6.250542|
|        9916|   -7.635157|   -6.103410|   -6.418659|   -6.250539|
|        9917|   -7.635625|   -6.101255|   -6.419035|   -6.250537|
|        9918|   -7.636098|   -6.099101|   -6.419413|   -6.250535|
|        9919|   -7.636576|   -6.096949|   -6.419795|   -6.250534|
|        9920|   -7.637059|   -6.094799|   -6.420179|   -6.250533|
|        9921|   -7.637547|   -6.092651|   -6.420566|   -6.250531|
|        9922|   -7.638040|   -6.090505|   -6.420955|   -6.250530|
|        9923|   -7.638538|   -6.088362|   -6.421347|   -6.250529|
|        9924|   -7.639041|   -6.086222|   -6.421742|   -6.250529|
|        9925|   -7.639549|   -6.084085|   -6.422139|   -6.250528|
|        9926|   -7.640062|   -6.081952|   -6.422539|   -6.250528|
|        9927|   -7.640580|   -6.079822|   -6.422941|   -6.250527|
|        9928|   -7.641103|   -6.077696|   -6.423346|   -6.250527|
|        9929|   -7.641631|   -6.075574|   -6.423754|   -6.250527|
|        9930|   -7.642165|   -6.073456|   -6.424164|   -6.250527|
|        9931|   -7.642703|   -6.071342|   -6.424577|   -6.250527|
|        9932|   -7.643247|   -6.069233|   -6.424993|   -6.250527|
|        9933|   -7.643796|   -6.067129|   -6.425411|   -6.250528|
|        9934|   -7.644350|   -6.065029|   -6.425831|   -6.250528|
|        9935|   -7.644909|   -6.062935|   -6.426254|   -6.250529|
|        9936|   -7.645473|   -6.060845|   -6.426680|   -6.250529|
|        9937|   -7.646043|   -6.058761|   -6.427108|   -6.250530|
|        9938|   -7.646617|   -6.056683|   -6.427538|   -6.250531|
|        9939|   -7.647198|   -6.054610|   -6.427971|   -6.250531|
|        9940|   -7.647783|   -6.052543|   -6.428407|   -6.250532|
|        9941|   -7.648374|   -6.050482|   -6.428845|   -6.250533|
|        9942|   -7.648970|   -6.048427|   -6.429285|   -6.250534|
|        9943|   -7.649571|   -6.046378|   -6.429728|   -6.250535|
|        9944|   -7.650177|   -6.044335|   -6.430174|   -6.250536|
|        9945|   -7.650789|   -6.042298|   -6.430622|   -6.250537|
|        9946|   -7.651407|   -6.040268|   -6.431072|   -6.250538|
|        9947|   -7.652029|   -6.038244|   -6.431525|   -6.250539|
|        9948|   -7.652658|   -6.036227|   -6.431980|   -6.250541|
|        9949|   -7.653291|   -6.034217|   -6.432437|   -6.250542|
|        9950|   -7.653930|   -6.032213|   -6.432897|   -6.250544|
|        9951|   -7.654575|   -6.030217|   -6.433359|   -6.250545|
|        9952|   -7.655225|   -6.028227|   -6.433824|   -6.250547|
|        9953|   -7.655880|   -6.026244|   -6.434291|   -6.250549|
|        9954|   -7.656541|   -6.024269|   -6.434760|   -6.250551|
|        9955|   -7.657208|   -6.022300|   -6.435232|   -6.250553|
|        9956|   -7.657880|   -6.020339|   -6.435706|   -6.250554|
|        9957|   -7.658557|   -6.018385|   -6.436182|   -6.250556|
|        9958|   -7.659241|   -6.016439|   -6.436661|   -6.250558|
|        9959|   -7.659929|   -6.014500|   -6.437141|   -6.250560|
|        9960|   -7.660624|   -6.012568|   -6.437625|   -6.250562|
|        9961|   -7.661324|   -6.010644|   -6.438110|   -6.250563|
|        9962|   -7.662030|   -6.008728|   -6.438598|   -6.250565|
|        9963|   -7.662741|   -6.006819|   -6.439087|   -6.250567|
|        9964|   -7.663458|   -6.004918|   -6.439580|   -6.250568|
|        9965|   -7.664181|   -6.003024|   -6.440074|   -6.250570|
|        9966|   -7.664910|   -6.001138|   -6.440570|   -6.250571|
|        9967|   -7.665644|   -5.999260|   -6.441069|   -6.250573|
|        9968|   -7.666384|   -5.997390|   -6.441570|   -6.250574|
|        9969|   -7.667130|   -5.995528|   -6.442073|   -6.250575|
|        9970|   -7.667881|   -5.993673|   -6.442578|   -6.250577|
|        9971|   -7.668639|   -5.991826|   -6.443085|   -6.250578|
|        9972|   -7.669402|   -5.989987|   -6.443594|   -6.250579|
|        9973|   -7.670171|   -5.988156|   -6.444105|   -6.250580|
|        9974|   -7.670946|   -5.986333|   -6.444619|   -6.250581|
|        9975|   -7.671727|   -5.984518|   -6.445134|   -6.250582|
|        9976|   -7.672514|   -5.982711|   -6.445651|   -6.250583|
|        9977|   -7.673306|   -5.980912|   -6.446170|   -6.250584|
|        9978|   -7.674105|   -5.979121|   -6.446691|   -6.250585|
|        9979|   -7.674909|   -5.977338|   -6.447214|   -6.250586|
|        9980|   -7.675720|   -5.975563|   -6.447739|   -6.250586|
|        9981|   -7.676536|   -5.973796|   -6.448266|   -6.250587|
|        9982|   -7.677359|   -5.972037|   -6.448795|   -6.250588|
|        9983|   -7.678187|   -5.970286|   -6.449325|   -6.250589|
|        9984|   -7.679022|   -5.968544|   -6.449858|   -6.250589|
|        9985|   -7.679862|   -5.966809|   -6.450392|   -6.250590|
|        9986|   -7.680709|   -5.965082|   -6.450928|   -6.250591|
|        9987|   -7.681561|   -5.963364|   -6.451466|   -6.250592|
|        9988|   -7.682420|   -5.961653|   -6.452006|   -6.250593|
|        9989|   -7.683285|   -5.959951|   -6.452547|   -6.250594|
|        9990|   -7.684156|   -5.958257|   -6.453091|   -6.250595|
|        9991|   -7.685033|   -5.956571|   -6.453636|   -6.250596|
|        9992|   -7.685917|   -5.954893|   -6.454183|   -6.250597|
|        9993|   -7.686806|   -5.953223|   -6.454732|   -6.250597|
|        9994|   -7.687702|   -5.951561|   -6.455283|   -6.250598|
|        9995|   -7.688604|   -5.949907|   -6.455835|   -6.250599|
|        9996|   -7.689512|   -5.948261|   -6.456389|   -6.250599|
|        9997|   -7.690427|   -5.946624|   -6.456945|   -6.250600|
|        9998|   -7.691348|   -5.944994|   -6.457503|   -6.250600|
|        9999|   -7.692275|   -5.943373|   -6.458062|   -6.250601|

----------------------------- Solver Exit -------------------------------

Maximum number of iterations reached (ITER = 10000) before convergence.
+-----------------------------------------------------------------------+
|      Convergence Field     |     Value    |   Criterion  |  Converged |
+-----------------------------------------------------------------------+
|                      rms[P]|      -7.69227|         < -10|          No|
|                      rms[U]|      -5.94337|         < -10|          No|
|                      rms[V]|      -6.45806|         < -10|          No|
|                      rms[k]|      -5.98289|         < -10|          No|
+-----------------------------------------------------------------------+
-------------------------------------------------------------------------
+-----------------------------------------------------------------------+
|        File Writing Summary       |              Filename             |
+-----------------------------------------------------------------------+
|SU2 restart                        |restart_venturi_mixturedensity_30kW_fine.dat|
|                                   |                     (352.276 MB/s)|
|Paraview                           |flow_venturi_mixturedensity_30kW_fine_00009999.vtu|
|                                   |                     (3.29873 MB/s)|
|Paraview surface                   |surface_flow_venturi_mixturedensity_30kW_fine.vtu|
|                                   |                     (3.18359 MB/s)|
+-----------------------------------------------------------------------+

------------------------- Solver Postprocessing -------------------------
Deleted CNumerics container.
Deleted CIntegration container.
Deleted CSolver container.
Deleted CIteration container.
Deleted CInterface container.
Deleted CGeometry container.
Deleted CFreeFormDefBox class.
Deleted CSurfaceMovement class.
Deleted CVolumetricMovement class.
Deleted CConfig container.
Deleted nInst container.
Deleted COutput class.
-------------------------------------------------------------------------


-------------------------- Performance Summary --------------------------
Simulation totals:
   Wall-clock time (hrs):    0.102467 |            Core-hrs:     14.3453
                   Cores:         140 |          DOFs/point:           7
             Points/core:     2092.49 |   Ghost points/core:     197.607
 Ghost/Owned Point Ratio:   0.0944366 | 

Preprocessing phase:
       Preproc. Time (s):    0.471306 |   Preproc. Time (%):    0.127767

Compute phase:
        Compute Time (s):     354.627 |    Compute Time (%):     96.1362
         Iteration count:       10000 |         Avg. s/iter:   0.0354627
     Core-s/iter/Mpoints:     15.4853 |           Mpoints/s:     9.04086

Output phase:
         Output Time (s):     13.7813 |     Output Time (%):     3.73599
            Output count:           1 |       Avg. s/output:     13.7813
 Restart Aggr. BW (MB/s):     2021.24 |           MB/s/core:     14.4374
-------------------------------------------------------------------------


------------------------- Exit Success (SU2_CFD) ------------------------

