scsub> Executing:  'cd /home/hem1dev/Codes/SU2_Github_Mark_Test/SU2/Venturi'


WARNING: CONV_CRITERIA is deprecated. SU2 will choose the criteria automatically based on the CONV_FIELD.
That is, RESIDUAL for any RMS_* BGS_* value, and CAUCHY for coefficients such as DRAG etc.


-------------------------------------------------------------------------
|    ___ _   _ ___                                                      |
|   / __| | | |_  )   Release 7.1.1 "Blackbird"                         |
|   \__ \ |_| |/ /                                                      |
|   |___/\___//___|   Suite (Computational Fluid Dynamics Code)         |
|                                                                       |
-------------------------------------------------------------------------
| SU2 Project Website: https://su2code.github.io                        |
|                                                                       |
| The SU2 Project is maintained by the SU2 Foundation                   |
| (http://su2foundation.org)                                            |
-------------------------------------------------------------------------
| Copyright 2012-2021, SU2 Contributors                                 |
|                                                                       |
| SU2 is free software; you can redistribute it and/or                  |
| modify it under the terms of the GNU Lesser General Public            |
| License as published by the Free Software Foundation; either          |
| version 2.1 of the License, or (at your option) any later version.    |
|                                                                       |
| SU2 is distributed in the hope that it will be useful,                |
| but WITHOUT ANY WARRANTY; without even the implied warranty of        |
| MERCHANTABILITY or FITNESS FOR A PARTICULAR PURPOSE. See the GNU      |
| Lesser General Public License for more details.                       |
|                                                                       |
| You should have received a copy of the GNU Lesser General Public      |
| License along with SU2. If not, see <http://www.gnu.org/licenses/>.   |
-------------------------------------------------------------------------


WARNING: CONV_CRITERIA is deprecated. SU2 will choose the criteria automatically based on the CONV_FIELD.
That is, RESIDUAL for any RMS_* BGS_* value, and CAUCHY for coefficients such as DRAG etc.


Parsing config file for zone 0


WARNING: CONV_CRITERIA is deprecated. SU2 will choose the criteria automatically based on the CONV_FIELD.
That is, RESIDUAL for any RMS_* BGS_* value, and CAUCHY for coefficients such as DRAG etc.


----------------- Physical Case Definition ( Zone 0 ) -------------------
Incompressible RANS equations.
Turbulence model: Menter's SST
Hybrid RANS/LES: No Hybrid RANS/LES
No restart solution, use the values at infinity (freestream).
Dimensional simulation.
The reference area is 1 m^2.
The semi-span will be computed using the max y(3D) value.
The reference length is 1 m.
Input mesh file name: c6_cms_venturi.cgns

--------------- Space Numerical Integration ( Zone 0 ) ------------------
Flux difference splitting (FDS) upwind scheme for the flow inviscid terms.
Second order integration in space, with slope limiter.
No slope-limiting method. 
Average of gradients with correction (viscous flow terms).
Average of gradients with correction (viscous turbulence terms).
Gradient for upwind reconstruction: inverse-distance weighted Least-Squares.
Gradient for viscous and source terms: inverse-distance weighted Least-Squares.

--------------- Time Numerical Integration  ( Zone 0 ) ------------------
Local time stepping (steady state simulation).
Euler implicit method for the flow equations.
FGMRES is used for solving the linear system.
Using a ILU(0) preconditioning.
Convergence criteria of the linear solver: 1e-08.
Max number of linear iterations: 20.
No CFL adaptation.
Courant-Friedrichs-Lewy number:      100
Euler implicit time integration for the turbulence model.

------------------ Convergence Criteria  ( Zone 0 ) ---------------------
Maximum number of solver subiterations: 10000.
Begin convergence monitoring at iteration 10.
Residual minimum value: 1e-10.
Cauchy series min. value: 1e-06.
Number of Cauchy elements: 100.
Begin windowed time average at iteration 0.

-------------------- Output Information ( Zone 0 ) ----------------------
Writing solution files every 500 iterations.
Writing the convergence history file every 1 inner iterations.
Writing the screen convergence history every 1 inner iterations.
The tabular file format is CSV (.csv).
Convergence history file name: history_test.
Forces breakdown file name: forces_breakdown.dat.
Surface file name: surface_flow_venturi_mixturedensity_30kW_fine_test.
Volume file name: flow_venturi_mixturedensity_30kW_fine_test.
Restart file name: restart_venturi_mixturedensity_30kW_fine_test.dat.

------------- Config File Boundary Information ( Zone 0 ) ---------------
+-----------------------------------------------------------------------+
|                        Marker Type|                        Marker Name|
+-----------------------------------------------------------------------+
|                     Symmetry plane|                               axis|
+-----------------------------------------------------------------------+
|                     Inlet boundary|                          gas_inlet|
|                                   |                          air_inlet|
+-----------------------------------------------------------------------+
|                    Outlet boundary|                             outlet|
+-----------------------------------------------------------------------+
|                     Heat flux wall|            wall-component1-surface|
+-----------------------------------------------------------------------+

-------------------- Output Preprocessing ( Zone 0 ) --------------------
Screen output fields: INNER_ITER, RMS_PRESSURE, RMS_VELOCITY-X, RMS_VELOCITY-Y, RMS_PASSIVE_SCALAR
History output group(s): RMS_RES, AERO_COEFF, FLOW_COEFF
Convergence field(s): RMS_PRESSURE, RMS_VELOCITY-X, RMS_VELOCITY-Y, RMS_TKE
Warning: No (valid) fields chosen for time convergence monitoring. Time convergence monitoring inactive.
  Info: Ignoring the following volume output fields/groups:
  SOURCE, LOOKUP
Volume output fields: DENSITY, SOLUTION, PRIMITIVE, RESIDUAL, COORDINATES

------------------- Geometry Preprocessing ( Zone 0 ) -------------------
Reading the CGNS file: c6_cms_venturi.cgns.
CGNS file contains 1 database(s).
Database 1, Base:  cell dimension of 2, physical dimension of 2.
1 total zone(s).
Zone 1, Zone: 292948 total vertices, 295883 total elements.
Loading CoordinateX values into linear partitions.
Loading CoordinateY values into linear partitions.
Distributing connectivity across all ranks.
Number of connectivity sections is 6.
Section gas_inlet contains 51 elements of type Mixed.
Section air_inlet contains 150 elements of type Mixed.
Section outlet contains 157 elements of type Mixed.
Section axis contains 1721 elements of type Mixed.
Section component1-surface contains 290183 elements of type Mixed.
Section wall-component1-surface contains 3621 elements of type Mixed.
Loading surface section gas_inlet from file.
Loading surface section air_inlet from file.
Loading surface section outlet from file.
Loading surface section axis from file.
Loading volume section component1-surface from file.
Loading surface section wall-component1-surface from file.
Two dimensional problem.
292948 grid points before partitioning.
290183 volume elements before partitioning.
5 surface markers.
51 boundary elements in index 0 (Marker = gas_inlet).
150 boundary elements in index 1 (Marker = air_inlet).
157 boundary elements in index 2 (Marker = outlet).
1721 boundary elements in index 3 (Marker = axis).
3621 boundary elements in index 4 (Marker = wall-component1-surface).
Executing the partitioning functions.
Building the graph adjacency structure.
Calling ParMETIS... graph partitioning complete (8745 edge cuts).
Distributing ParMETIS coloring.
Rebalancing vertices.
Rebalancing volume element connectivity.
Rebalancing markers and surface elements.
310563 vertices including ghost points. 
298924 interior elements including halo cells. 
176 triangles.
298748 quadrilaterals.
Establishing MPI communication patterns.
Setting point connectivity.
Renumbering points (Reverse Cuthill McKee Ordering).
Recomputing point connectivity.
Setting element connectivity.
Checking the numerical grid orientation.
All volume elements are correctly orientend.
All surface elements are correctly orientend.
Identifying edges and vertices.
Setting the control volume structure.
Area of the computational grid: 0.00281151.
Searching for the closest normal neighbors to the surfaces.
Storing a mapping from global to local point index.
Compute the surface curvature.
Max K: 25766.3. Mean K: 66.0693. Standard deviation K: 1007.76.
Checking for periodicity.
Computing mesh quality statistics for the dual control volumes.
+--------------------------------------------------------------+
|           Mesh Quality Metric|        Minimum|        Maximum|
+--------------------------------------------------------------+
|    Orthogonality Angle (deg.)|        45.2115|             90|
|     CV Face Area Aspect Ratio|              1|        10.3208|
|           CV Sub-Volume Ratio|              1|        9.85984|
+--------------------------------------------------------------+
Finding max control volume width.
Communicating number of neighbors.
Wetted area = 0 m.
Area projection in the x-plane = 0 m, y-plane = 0 m.
Max. coordinate in the x-direction = -1e+10 m, y-direction = -1e+10 m.
Min. coordinate in the x-direction = 1e+10 m, y-direction = 1e+10 m.
Checking if Euler & Symmetry markers are straight/plane:
Boundary marker axis is a single straight.
Computing wall distances.

-------------------- Solver Preprocessing ( Zone 0 ) --------------------
Incompressible flow: rho_ref, vel_ref, temp_ref, p_ref
are set to 1.0 in order to perform a dimensional calculation.
Force coefficients computed using initial values.
The reference area for force coeffs. is 1 m^2.
The reference length for force coeffs. is 1 m.
The pressure is decomposed into thermodynamic and dynamic components.
The initial value of the dynamic pressure is 0.
Mach number: 0, computed using fluid speed of sound.
For external flows, the initial state is imposed at the far-field.
Angle of attack (deg): 0, computed using the initial velocity.
Side slip angle (deg): 0, computed using the initial velocity.
Reynolds number per meter: 65290.8, computed using initial values.
Reynolds number is a byproduct of inputs only (not used internally).
SI units only. The grid should be dimensional (meters).
Energy equation is active and coupled for variable density.

-- Models:
+------------------------------------------------------------------------------+
|          Viscosity Model|        Conductivity Model|              Fluid Model|
+------------------------------------------------------------------------------+
|       CONSTANT_VISCOSITY|                  CONSTANT|+------------------------------------------------------------------------------+
-- Fluid properties:
+------------------------------------------------------------------------------+
|                  Name|    Dim. value|    Ref. value|      Unit|Non-dim. value|
+------------------------------------------------------------------------------+
|             Viscosity|     1.118e-05|             1|   N.s/m^2|     1.118e-05|
+------------------------------------------------------------------------------+
|       Molecular Cond.|         0.072|             1|   W/m^2.K|         0.072|
+------------------------------------------------------------------------------+
-- Initial and free-stream conditions:
+------------------------------------------------------------------------------+
|                  Name|    Dim. value|    Ref. value|      Unit|Non-dim. value|
+------------------------------------------------------------------------------+
|      Dynamic Pressure|             0|             1|        Pa|             0|
|        Total Pressure|      0.585985|             1|        Pa|      0.585985|
|               Density|       1.17197|             1|    kg/m^3|       1.17197|
|           Temperature|           300|             1|         K|           300|
|            Velocity-X|             1|             1|       m/s|             1|
|            Velocity-Y|             0|             1|       m/s|             0|
|    Velocity Magnitude|             1|             1|       m/s|             1|
+------------------------------------------------------------------------------+
|             Viscosity|     1.795e-05|             1|   N.s/m^2|     1.795e-05|
|          Conductivity|             -|             1|   W/m^2.K|             -|
|     Turb. Kin. Energy|       0.00375|             1|   m^2/s^2|       0.00375|
|     Spec. Dissipation|       24.4841|             1|       1/s|       24.4841|
+------------------------------------------------------------------------------+
|           Mach Number|             -|             -|         -|             0|
|       Reynolds Number|             -|             -|         -|       65290.8|
+------------------------------------------------------------------------------+
Initialize Jacobian structure (Navier-Stokes). MG level: 0.
Initialize Jacobian structure (passive scalar model).
Initialize Jacobian structure (SST model).

------------------- Numerics Preprocessing ( Zone 0 ) -------------------

----------------- Integration Preprocessing ( Zone 0 ) ------------------

------------------- Iteration Preprocessing ( Zone 0 ) ------------------
Euler/Navier-Stokes/RANS fluid iteration.

------------------------------ Begin Solver -----------------------------

Simulation Run using the Single-zone Driver
Initializing passive scalar (initial condition).
initialization = 1 1
+----------------------------------------------------------------+
|  Inner_Iter|      rms[P]|      rms[U]|      rms[V]|      rms[c]|
+----------------------------------------------------------------+
|           0|   -5.116953|   -4.847332|   -4.364756|   -5.710014|
|           1|   -4.986664|   -4.844342|   -4.071097|   -5.228501|
|           2|   -5.397912|   -4.543874|   -4.030100|   -5.335502|
|           3|   -5.504254|   -4.736086|   -4.076735|   -5.471068|
|           4|   -5.655709|   -4.832053|   -4.095553|   -5.522869|
|           5|   -5.628521|   -4.890813|   -4.330221|   -5.548290|
|           6|   -5.728511|   -4.859052|   -4.567050|   -5.577568|
|           7|   -5.768854|   -4.803265|   -4.706550|   -5.628017|
|           8|   -5.800315|   -4.764661|   -4.691484|   -5.690207|
|           9|   -5.808394|   -4.744324|   -4.588951|   -5.741743|
|          10|   -5.782138|   -4.732260|   -4.425757|   -5.767585|
|          11|   -5.754005|   -4.720710|   -4.321395|   -5.770184|
|          12|   -5.755093|   -4.708718|   -4.284457|   -5.758293|
|          13|   -5.783110|   -4.695917|   -4.288741|   -5.741342|
|          14|   -5.821328|   -4.680058|   -4.315588|   -5.726166|
|          15|   -5.857393|   -4.659061|   -4.350718|   -5.715805|
|          16|   -5.886796|   -4.633480|   -4.380310|   -5.710125|
|          17|   -5.908629|   -4.606013|   -4.394133|   -5.707452|
|          18|   -5.923202|   -4.579339|   -4.389964|   -5.705834|
|          19|   -5.932291|   -4.554864|   -4.373604|   -5.703807|
|          20|   -5.938880|   -4.532817|   -4.353508|   -5.700620|
|          21|   -5.945814|   -4.512848|   -4.336148|   -5.696153|
|          22|   -5.954637|   -4.494528|   -4.324539|   -5.690673|
|          23|   -5.965414|   -4.477528|   -4.318531|   -5.684602|
|          24|   -5.977309|   -4.461622|   -4.316719|   -5.678348|
|          25|   -5.989324|   -4.446632|   -4.316917|   -5.672198|
|          26|   -6.000764|   -4.432395|   -4.316673|   -5.666282|
|          27|   -6.011318|   -4.418769|   -4.315414|   -5.660597|
|          28|   -6.020978|   -4.405680|   -4.313394|   -5.655098|
|          29|   -6.029871|   -4.393074|   -4.310929|   -5.649732|
|          30|   -6.038180|   -4.380902|   -4.308495|   -5.644458|
|          31|   -6.046047|   -4.369089|   -4.306463|   -5.639260|
|          32|   -6.053555|   -4.357558|   -4.304999|   -5.634137|
|          33|   -6.060690|   -4.346237|   -4.304037|   -5.629073|
|          34|   -6.067396|   -4.335097|   -4.303270|   -5.624061|
|          35|   -6.073642|   -4.324161|   -4.302404|   -5.619114|
|          36|   -6.079408|   -4.313479|   -4.301045|   -5.614278|
|          37|   -6.084707|   -4.303064|   -4.298119|   -5.609609|
|          38|   -6.089632|   -4.292899|   -4.292725|   -5.605158|
|          39|   -6.094320|   -4.283011|   -4.286990|   -5.600953|
|          40|   -6.098704|   -4.273408|   -4.281679|   -5.596975|
|          41|   -6.102690|   -4.264062|   -4.277201|   -5.593168|
|          42|   -6.106283|   -4.254896|   -4.273872|   -5.589502|
|          43|   -6.109584|   -4.245724|   -4.270780|   -5.585981|
|          44|   -6.112718|   -4.236413|   -4.268688|   -5.582696|
|          45|   -6.115584|   -4.226939|   -4.266979|   -5.579709|
|          46|   -6.118175|   -4.217535|   -4.266663|   -5.576995|
|          47|   -6.120399|   -4.208627|   -4.267574|   -5.574489|
|          48|   -6.122272|   -4.200590|   -4.268405|   -5.572099|
|          49|   -6.124019|   -4.193741|   -4.269424|   -5.569777|
|          50|   -6.125687|   -4.188272|   -4.271068|   -5.567481|
|          51|   -6.127131|   -4.184181|   -4.273238|   -5.565244|
|          52|   -6.128418|   -4.181309|   -4.275967|   -5.563122|
|          53|   -6.129531|   -4.179414|   -4.279343|   -5.561192|
|          54|   -6.130434|   -4.178239|   -4.283362|   -5.559454|
|          55|   -6.131032|   -4.177614|   -4.287829|   -5.557804|
|          56|   -6.131229|   -4.177459|   -4.292399|   -5.556025|
|          57|   -6.131047|   -4.177725|   -4.296700|   -5.553856|
|          58|   -6.130604|   -4.178332|   -4.300350|   -5.551081|
|          59|   -6.129624|   -4.179081|   -4.302960|   -5.547607|
|          60|   -6.127627|   -4.179627|   -4.304024|   -5.543457|
|          61|   -6.124318|   -4.179495|   -4.303429|   -5.538701|
|          62|   -6.119587|   -4.178224|   -4.301444|   -5.533405|
|          63|   -6.113438|   -4.175529|   -4.298255|   -5.527638|
|          64|   -6.106017|   -4.171382|   -4.293918|   -5.521477|
|          65|   -6.097494|   -4.166019|   -4.288302|   -5.514982|
|          66|   -6.087877|   -4.159839|   -4.281063|   -5.508172|
|          67|   -6.077032|   -4.153236|   -4.271720|   -5.501005|
|          68|   -6.064768|   -4.146491|   -4.259813|   -5.493357|
|          69|   -6.050793|   -4.139581|   -4.244989|   -5.485045|
|          70|   -6.034919|   -4.132282|   -4.227231|   -5.475851|
|          71|   -6.016952|   -4.124431|   -4.206716|   -5.465693|
|          72|   -5.997746|   -4.116398|   -4.183865|   -5.454744|
|          73|   -5.977003|   -4.108184|   -4.159161|   -5.443890|
|          74|   -5.955323|   -4.100089|   -4.134289|   -5.434724|
|          75|   -5.935401|   -4.092257|   -4.112094|   -5.428845|
|          76|   -5.920233|   -4.084438|   -4.095783|   -5.427182|
|          77|   -5.911495|   -4.076388|   -4.087130|   -5.429564|
|          78|   -5.908560|   -4.068600|   -4.087502|   -5.434744|
|          79|   -5.910099|   -4.061934|   -4.094971|   -5.441142|
|          80|   -5.915385|   -4.057165|   -4.104581|   -5.447702|
|          81|   -5.922429|   -4.054129|   -4.114412|   -5.454278|
|          82|   -5.930466|   -4.051953|   -4.124246|   -5.460801|
|          83|   -5.938459|   -4.049408|   -4.134605|   -5.466964|
|          84|   -5.944658|   -4.045776|   -4.144622|   -5.472469|
|          85|   -5.947866|   -4.041328|   -4.153023|   -5.476592|
|          86|   -5.947107|   -4.034924|   -4.159689|   -5.478608|
|          87|   -5.942107|   -4.026537|   -4.164363|   -5.477872|
|          88|   -5.932907|   -4.017439|   -4.164899|   -5.474056|
|          89|   -5.921047|   -4.007535|   -4.157765|   -5.467079|
|          90|   -5.907778|   -3.997042|   -4.140936|   -5.456959|
|          91|   -5.890540|   -3.986897|   -4.115621|   -5.444787|
|          92|   -5.869359|   -3.978188|   -4.086771|   -5.432358|
|          93|   -5.845824|   -3.971431|   -4.059798|   -5.421813|
|          94|   -5.823515|   -3.966770|   -4.038794|   -5.414543|
|          95|   -5.806861|   -3.963889|   -4.025805|   -5.410772|
|          96|   -5.797125|   -3.962289|   -4.020189|   -5.410170|
|          97|   -5.792717|   -3.961324|   -4.019496|   -5.412253|
|          98|   -5.792919|   -3.960439|   -4.021810|   -5.416384|
|          99|   -5.797084|   -3.959772|   -4.026348|   -5.422085|
|         100|   -5.805093|   -3.959488|   -4.032554|   -5.428783|
|         101|   -5.815969|   -3.959728|   -4.040976|   -5.436062|
|         102|   -5.828970|   -3.960909|   -4.051572|   -5.443199|
|         103|   -5.842894|   -3.963676|   -4.063508|   -5.449870|
|         104|   -5.858305|   -3.967799|   -4.075669|   -5.456100|
|         105|   -5.873409|   -3.972959|   -4.087888|   -5.461499|
|         106|   -5.888230|   -3.979163|   -4.100041|   -5.465447|
|         107|   -5.902000|   -3.986266|   -4.110892|   -5.467147|
|         108|   -5.913250|   -3.994275|   -4.118477|   -5.466245|
|         109|   -5.922093|   -4.002594|   -4.121934|   -5.462585|
|         110|   -5.925749|   -4.010767|   -4.122400|   -5.456772|
|         111|   -5.922793|   -4.018258|   -4.121051|   -5.449555|
|         112|   -5.912062|   -4.024709|   -4.118644|   -5.442715|
|         113|   -5.902510|   -4.029519|   -4.115669|   -5.436165|
|         114|   -5.892022|   -4.032049|   -4.113467|   -5.430284|
|         115|   -5.881058|   -4.033233|   -4.112075|   -5.425339|
|         116|   -5.871586|   -4.033867|   -4.112218|   -5.421623|
|         117|   -5.863798|   -4.034457|   -4.114204|   -5.419185|
|         118|   -5.857366|   -4.035580|   -4.117623|   -5.418360|
|         119|   -5.853450|   -4.037808|   -4.122256|   -5.419165|
|         120|   -5.851303|   -4.041289|   -4.127443|   -5.421650|
|         121|   -5.851380|   -4.045793|   -4.132812|   -5.425672|
|         122|   -5.852849|   -4.051359|   -4.137619|   -5.431193|
|         123|   -5.856165|   -4.057754|   -4.140855|   -5.437923|
|         124|   -5.860775|   -4.064858|   -4.142035|   -5.445352|
|         125|   -5.865354|   -4.072452|   -4.141315|   -5.453066|
|         126|   -5.870035|   -4.080190|   -4.138783|   -5.460915|
|         127|   -5.874455|   -4.087625|   -4.135059|   -5.468731|
|         128|   -5.878382|   -4.094571|   -4.130248|   -5.476277|
|         129|   -5.882171|   -4.100796|   -4.124945|   -5.483422|
|         130|   -5.885356|   -4.106332|   -4.118323|   -5.490384|
|         131|   -5.892440|   -4.110397|   -4.111531|   -5.496342|
|         132|   -5.900122|   -4.113942|   -4.105831|   -5.501241|
|         133|   -5.907354|   -4.117138|   -4.101318|   -5.505234|
|         134|   -5.913494|   -4.119882|   -4.098082|   -5.508492|
|         135|   -5.918871|   -4.122402|   -4.096128|   -5.511182|
|         136|   -5.923521|   -4.124694|   -4.095347|   -5.513400|
|         137|   -5.927675|   -4.126767|   -4.095606|   -5.515362|
|         138|   -5.931161|   -4.128562|   -4.096676|   -5.517085|
|         139|   -5.934527|   -4.130012|   -4.098256|   -5.518690|
|         140|   -5.937697|   -4.131200|   -4.100052|   -5.520028|
|         141|   -5.940784|   -4.132277|   -4.101929|   -5.521106|
|         142|   -5.943471|   -4.133261|   -4.103616|   -5.521913|
|         143|   -5.945357|   -4.134120|   -4.105287|   -5.522568|
|         144|   -5.946815|   -4.134943|   -4.106999|   -5.523101|
|         145|   -5.947619|   -4.135576|   -4.108491|   -5.523489|
|         146|   -5.948429|   -4.136464|   -4.109491|   -5.523790|
|         147|   -5.949503|   -4.137647|   -4.110080|   -5.524008|
|         148|   -5.950682|   -4.138879|   -4.110271|   -5.524174|
|         149|   -5.951696|   -4.140222|   -4.110068|   -5.524369|
|         150|   -5.953360|   -4.141673|   -4.109528|   -5.524737|
|         151|   -5.955865|   -4.143398|   -4.108818|   -5.525294|
|         152|   -5.958532|   -4.145459|   -4.108339|   -5.525929|
|         153|   -5.961940|   -4.147692|   -4.108069|   -5.526448|
|         154|   -5.965825|   -4.149855|   -4.107585|   -5.526798|
|         155|   -5.969780|   -4.151923|   -4.106844|   -5.526879|
|         156|   -5.973608|   -4.154111|   -4.106194|   -5.526800|
|         157|   -5.976697|   -4.156366|   -4.105698|   -5.526573|
|         158|   -5.978648|   -4.158506|   -4.105355|   -5.526243|
|         159|   -5.980145|   -4.160343|   -4.105318|   -5.525812|
|         160|   -5.981862|   -4.162173|   -4.105484|   -5.525285|
|         161|   -5.983504|   -4.164132|   -4.105915|   -5.524532|
|         162|   -5.985262|   -4.165882|   -4.106537|   -5.523638|
|         163|   -5.986794|   -4.167414|   -4.107330|   -5.522622|
|         164|   -5.987670|   -4.168655|   -4.108187|   -5.521485|
|         165|   -5.988722|   -4.169657|   -4.108964|   -5.520198|
|         166|   -5.989583|   -4.170400|   -4.109602|   -5.518685|
|         167|   -5.989896|   -4.170666|   -4.109981|   -5.516896|
|         168|   -5.989934|   -4.170576|   -4.110024|   -5.514830|
|         169|   -5.989418|   -4.169888|   -4.109643|   -5.512512|
|         170|   -5.988498|   -4.168513|   -4.108664|   -5.510043|
|         171|   -5.987031|   -4.166282|   -4.106872|   -5.507496|
|         172|   -5.985377|   -4.163401|   -4.104627|   -5.504929|
|         173|   -5.983474|   -4.160093|   -4.102083|   -5.502362|
|         174|   -5.982227|   -4.156479|   -4.099437|   -5.499780|
|         175|   -5.981439|   -4.152955|   -4.096779|   -5.497140|
|         176|   -5.981104|   -4.149330|   -4.094056|   -5.494444|
|         177|   -5.981045|   -4.145276|   -4.091355|   -5.491711|
|         178|   -5.980803|   -4.140760|   -4.088505|   -5.488974|
|         179|   -5.981132|   -4.135883|   -4.085673|   -5.486282|
|         180|   -5.981831|   -4.130541|   -4.082844|   -5.483646|
|         181|   -5.982972|   -4.124937|   -4.079994|   -5.481059|
|         182|   -5.984160|   -4.119365|   -4.077035|   -5.478483|
|         183|   -5.985863|   -4.113900|   -4.073685|   -5.475890|
|         184|   -5.987629|   -4.108332|   -4.069991|   -5.473242|
|         185|   -5.989561|   -4.102785|   -4.065982|   -5.470567|
|         186|   -5.991465|   -4.097616|   -4.061709|   -5.467952|
|         187|   -5.993423|   -4.092808|   -4.057124|   -5.465441|
|         188|   -5.995268|   -4.088130|   -4.052369|   -5.463020|
|         189|   -5.997383|   -4.083742|   -4.047533|   -5.460695|
|         190|   -5.999831|   -4.079934|   -4.042765|   -5.458387|
|         191|   -6.002611|   -4.076633|   -4.038163|   -5.456100|
|         192|   -6.005550|   -4.073797|   -4.033863|   -5.453847|
|         193|   -6.008585|   -4.071313|   -4.029933|   -5.451657|
|         194|   -6.011466|   -4.069036|   -4.026368|   -5.449553|
|         195|   -6.014392|   -4.066955|   -4.023126|   -5.447570|
|         196|   -6.017070|   -4.064960|   -4.020241|   -5.445736|
|         197|   -6.019626|   -4.063114|   -4.017788|   -5.444058|
|         198|   -6.021918|   -4.061484|   -4.015850|   -5.442538|
|         199|   -6.024260|   -4.060036|   -4.014358|   -5.441161|
|         200|   -6.026389|   -4.058687|   -4.013212|   -5.439915|
|         201|   -6.028711|   -4.057465|   -4.012297|   -5.438816|
|         202|   -6.030985|   -4.056424|   -4.011515|   -5.437906|
|         203|   -6.033195|   -4.055499|   -4.010770|   -5.437197|
|         204|   -6.035193|   -4.054521|   -4.010096|   -5.436701|
|         205|   -6.037196|   -4.053540|   -4.009623|   -5.436416|
|         206|   -6.039409|   -4.052751|   -4.009444|   -5.436340|
|         207|   -6.041822|   -4.052126|   -4.009493|   -5.436453|
|         208|   -6.044203|   -4.051642|   -4.009632|   -5.436770|
|         209|   -6.046766|   -4.051337|   -4.009793|   -5.437280|
|         210|   -6.049190|   -4.051071|   -4.009925|   -5.437975|
|         211|   -6.051750|   -4.050770|   -4.009978|   -5.438856|
|         212|   -6.054223|   -4.050335|   -4.010032|   -5.439922|
|         213|   -6.056857|   -4.049752|   -4.010190|   -5.441198|
|         214|   -6.059703|   -4.049028|   -4.010546|   -5.442688|
|         215|   -6.062823|   -4.048147|   -4.011079|   -5.444393|
|         216|   -6.066005|   -4.047117|   -4.011798|   -5.446303|
|         217|   -6.069554|   -4.045992|   -4.012668|   -5.448363|
|         218|   -6.073718|   -4.044754|   -4.013691|   -5.450571|
|         219|   -6.078548|   -4.043443|   -4.014831|   -5.452930|
|         220|   -6.083853|   -4.042120|   -4.016084|   -5.455447|
|         221|   -6.089629|   -4.040724|   -4.017396|   -5.458097|
|         222|   -6.095878|   -4.039107|   -4.018752|   -5.460865|
|         223|   -6.102513|   -4.037271|   -4.020269|   -5.463746|
|         224|   -6.109583|   -4.035320|   -4.022072|   -5.466737|
|         225|   -6.116927|   -4.033375|   -4.024200|   -5.469821|
|         226|   -6.124591|   -4.031409|   -4.026658|   -5.472997|
|         227|   -6.132483|   -4.029416|   -4.029478|   -5.476261|
|         228|   -6.140377|   -4.027358|   -4.032701|   -5.479619|
|         229|   -6.148295|   -4.025279|   -4.036320|   -5.483069|
|         230|   -6.156366|   -4.023202|   -4.040282|   -5.486605|
|         231|   -6.164448|   -4.021165|   -4.044572|   -5.490229|
|         232|   -6.172624|   -4.019222|   -4.049114|   -5.493931|
|         233|   -6.180788|   -4.017300|   -4.053948|   -5.497719|
|         234|   -6.188996|   -4.015427|   -4.059023|   -5.501582|
|         235|   -6.197839|   -4.013638|   -4.064340|   -5.505530|
|         236|   -6.206821|   -4.012001|   -4.069857|   -5.509528|
|         237|   -6.215983|   -4.010516|   -4.075515|   -5.513571|
|         238|   -6.225774|   -4.009228|   -4.081296|   -5.517672|
|         239|   -6.235828|   -4.008128|   -4.087149|   -5.521806|
|         240|   -6.245843|   -4.007131|   -4.092959|   -5.525961|
|         241|   -6.256002|   -4.006221|   -4.098685|   -5.530154|
|         242|   -6.266155|   -4.005382|   -4.104307|   -5.534378|
|         243|   -6.276105|   -4.004565|   -4.109739|   -5.538609|
|         244|   -6.285329|   -4.003726|   -4.114977|   -5.542861|
|         245|   -6.294115|   -4.002897|   -4.119919|   -5.547119|
|         246|   -6.302297|   -4.002075|   -4.124557|   -5.551372|
|         247|   -6.309472|   -4.001260|   -4.128864|   -5.555611|
|         248|   -6.315698|   -4.000440|   -4.132795|   -5.559835|
|         249|   -6.320925|   -3.999590|   -4.136205|   -5.564047|
|         250|   -6.325557|   -3.998715|   -4.139077|   -5.568232|
|         251|   -6.329611|   -3.997825|   -4.141581|   -5.572385|
|         252|   -6.332988|   -3.996921|   -4.143743|   -5.576515|
|         253|   -6.335869|   -3.995975|   -4.145606|   -5.580638|
|         254|   -6.338418|   -3.994936|   -4.147150|   -5.584745|
|         255|   -6.340616|   -3.993883|   -4.148431|   -5.588851|
|         256|   -6.343387|   -3.992759|   -4.149571|   -5.592970|
|         257|   -6.345869|   -3.991665|   -4.150638|   -5.597049|
|         258|   -6.348986|   -3.990475|   -4.151720|   -5.601152|
|         259|   -6.351999|   -3.989293|   -4.152849|   -5.605202|
|         260|   -6.355723|   -3.988089|   -4.154149|   -5.609243|
|         261|   -6.359430|   -3.986861|   -4.155700|   -5.613223|
|         262|   -6.363441|   -3.985594|   -4.157488|   -5.617157|
|         263|   -6.367272|   -3.984211|   -4.159505|   -5.621028|
|         264|   -6.371010|   -3.982739|   -4.161644|   -5.624825|
|         265|   -6.373959|   -3.981119|   -4.163833|   -5.628542|
|         266|   -6.376775|   -3.979403|   -4.165914|   -5.632180|
|         267|   -6.378421|   -3.977631|   -4.167771|   -5.635693|
|         268|   -6.379744|   -3.975876|   -4.169304|   -5.639130|
|         269|   -6.379895|   -3.974238|   -4.170416|   -5.642409|
|         270|   -6.379423|   -3.972697|   -4.171033|   -5.645614|
|         271|   -6.378204|   -3.971356|   -4.170964|   -5.648665|
|         272|   -6.376551|   -3.970127|   -4.170441|   -5.651627|
|         273|   -6.374111|   -3.969125|   -4.169456|   -5.654438|
|         274|   -6.371563|   -3.968230|   -4.168186|   -5.657183|
|         275|   -6.368427|   -3.967456|   -4.166644|   -5.659810|
|         276|   -6.365489|   -3.966801|   -4.164834|   -5.662438|
|         277|   -6.363285|   -3.966359|   -4.162938|   -5.665016|
|         278|   -6.361683|   -3.966257|   -4.160939|   -5.667586|
|         279|   -6.360667|   -3.966447|   -4.159073|   -5.670154|
|         280|   -6.361050|   -3.966967|   -4.157413|   -5.672771|
|         281|   -6.361724|   -3.967770|   -4.156147|   -5.675346|
|         282|   -6.363587|   -3.968778|   -4.155398|   -5.678011|
|         283|   -6.365477|   -3.970005|   -4.155241|   -5.680676|
|         284|   -6.367500|   -3.971404|   -4.155783|   -5.683414|
|         285|   -6.369736|   -3.972994|   -4.157023|   -5.686257|
|         286|   -6.371536|   -3.974720|   -4.158946|   -5.689159|
|         287|   -6.372622|   -3.976504|   -4.161517|   -5.692147|
|         288|   -6.373217|   -3.978321|   -4.164696|   -5.695244|
|         289|   -6.373124|   -3.980135|   -4.168434|   -5.698423|
|         290|   -6.371947|   -3.981889|   -4.172620|   -5.701665|
|         291|   -6.369601|   -3.983504|   -4.177059|   -5.704947|
|         292|   -6.366184|   -3.984898|   -4.181442|   -5.708226|
|         293|   -6.361655|   -3.985994|   -4.185356|   -5.711466|
|         294|   -6.356030|   -3.986710|   -4.188374|   -5.714598|
|         295|   -6.349618|   -3.986998|   -4.190117|   -5.717601|
|         296|   -6.342418|   -3.986879|   -4.190181|   -5.720420|
|         297|   -6.334189|   -3.986354|   -4.188279|   -5.722961|
|         298|   -6.325474|   -3.985476|   -4.184376|   -5.725236|
|         299|   -6.316712|   -3.984416|   -4.178543|   -5.727217|
|         300|   -6.307689|   -3.983284|   -4.171079|   -5.728847|
|         301|   -6.298324|   -3.982192|   -4.162278|   -5.730114|
|         302|   -6.288793|   -3.981271|   -4.152488|   -5.731048|
|         303|   -6.279344|   -3.980701|   -4.141966|   -5.731705|
|         304|   -6.270354|   -3.980625|   -4.131060|   -5.732105|
|         305|   -6.261684|   -3.981084|   -4.120165|   -5.732274|
|         306|   -6.253328|   -3.982136|   -4.109572|   -5.732269|
|         307|   -6.245295|   -3.983827|   -4.099555|   -5.732134|
|         308|   -6.237356|   -3.986217|   -4.090679|   -5.731896|
|         309|   -6.229342|   -3.989306|   -4.083145|   -5.731603|
|         310|   -6.221310|   -3.993063|   -4.077029|   -5.731307|
|         311|   -6.213181|   -3.997427|   -4.072366|   -5.731036|
|         312|   -6.204918|   -4.002307|   -4.069119|   -5.730763|
|         313|   -6.196345|   -4.007580|   -4.067163|   -5.730545|
|         314|   -6.187563|   -4.013194|   -4.066341|   -5.730365|
|         315|   -6.178369|   -4.019138|   -4.066527|   -5.730295|
|         316|   -6.168725|   -4.025446|   -4.067651|   -5.730395|
|         317|   -6.158673|   -4.032132|   -4.069729|   -5.730819|
|         318|   -6.148365|   -4.039217|   -4.072911|   -5.731686|
|         319|   -6.137934|   -4.046730|   -4.077275|   -5.733154|
|         320|   -6.127688|   -4.054684|   -4.082767|   -5.735330|
|         321|   -6.117876|   -4.063005|   -4.089144|   -5.738318|
|         322|   -6.109625|   -4.071689|   -4.095483|   -5.742264|
|         323|   -6.103766|   -4.080649|   -4.101289|   -5.746991|
|         324|   -6.099444|   -4.089726|   -4.107198|   -5.752223|
|         325|   -6.095480|   -4.098603|   -4.113420|   -5.757914|
|         326|   -6.091384|   -4.107090|   -4.119833|   -5.764015|
|         327|   -6.087009|   -4.115041|   -4.126280|   -5.770456|
|         328|   -6.082510|   -4.122318|   -4.132626|   -5.777130|
|         329|   -6.078063|   -4.128862|   -4.138685|   -5.783918|
|         330|   -6.073663|   -4.134649|   -4.144225|   -5.790696|
|         331|   -6.069137|   -4.139733|   -4.149081|   -5.797360|
|         332|   -6.064427|   -4.144241|   -4.153099|   -5.803836|
|         333|   -6.059478|   -4.148342|   -4.156136|   -5.810076|
|         334|   -6.054343|   -4.152251|   -4.158224|   -5.816066|
|         335|   -6.049095|   -4.156132|   -4.159540|   -5.821809|
|         336|   -6.043839|   -4.160158|   -4.160286|   -5.827326|
|         337|   -6.038710|   -4.164436|   -4.160694|   -5.832634|
|         338|   -6.033784|   -4.169044|   -4.160990|   -5.837767|
|         339|   -6.029100|   -4.174035|   -4.161349|   -5.842777|
|         340|   -6.024755|   -4.179454|   -4.161982|   -5.847716|
|         341|   -6.020886|   -4.185347|   -4.162983|   -5.852586|
|         342|   -6.017582|   -4.191694|   -4.164569|   -5.857364|
|         343|   -6.014858|   -4.198408|   -4.166962|   -5.862005|
|         344|   -6.012670|   -4.205400|   -4.170096|   -5.866435|
|         345|   -6.010801|   -4.212512|   -4.173888|   -5.870544|
|         346|   -6.009070|   -4.219544|   -4.178078|   -5.874219|
|         347|   -6.007488|   -4.226345|   -4.179624|   -5.877417|
|         348|   -6.005755|   -4.232825|   -4.180104|   -5.879935|
|         349|   -6.004190|   -4.238933|   -4.180185|   -5.881648|
|         350|   -6.002755|   -4.244643|   -4.179960|   -5.881609|
|         351|   -6.001319|   -4.249910|   -4.179511|   -5.879843|
|         352|   -5.999734|   -4.254666|   -4.178815|   -5.876788|
|         353|   -5.998016|   -4.258895|   -4.177909|   -5.872843|
|         354|   -5.996213|   -4.262636|   -4.176846|   -5.869022|
|         355|   -5.994373|   -4.265895|   -4.175649|   -5.865026|
|         356|   -5.992510|   -4.268661|   -4.174351|   -5.860798|
|         357|   -5.990668|   -4.271047|   -4.172989|   -5.856343|
|         358|   -5.988894|   -4.273241|   -4.171664|   -5.851786|
|         359|   -5.987216|   -4.275341|   -4.170473|   -5.847237|
|         360|   -5.985649|   -4.277390|   -4.169496|   -5.842848|
|         361|   -5.984198|   -4.279381|   -4.168784|   -5.838700|
|         362|   -5.982849|   -4.281259|   -4.168311|   -5.834829|
|         363|   -5.981564|   -4.282920|   -4.168025|   -5.831271|
|         364|   -5.980312|   -4.284322|   -4.167852|   -5.828038|
|         365|   -5.979075|   -4.285478|   -4.167730|   -5.825104|
|         366|   -5.977848|   -4.286410|   -4.167633|   -5.822460|
|         367|   -5.976634|   -4.287158|   -4.167520|   -5.820107|
|         368|   -5.975462|   -4.287753|   -4.167412|   -5.818046|
|         369|   -5.974296|   -4.288223|   -4.167265|   -5.816292|
|         370|   -5.973113|   -4.288618|   -4.167015|   -5.814887|
|         371|   -5.971918|   -4.288984|   -4.166626|   -5.813918|
|         372|   -5.970873|   -4.289351|   -4.166322|   -5.813449|
|         373|   -5.970021|   -4.289758|   -4.166093|   -5.813530|
|         374|   -5.969395|   -4.290267|   -4.165908|   -5.814212|
|         375|   -5.969086|   -4.290962|   -4.165856|   -5.815421|
|         376|   -5.969116|   -4.291877|   -4.165989|   -5.817158|
|         377|   -5.969538|   -4.293013|   -4.166428|   -5.819359|
|         378|   -5.970324|   -4.294316|   -4.167213|   -5.821950|
|         379|   -5.971436|   -4.295685|   -4.168355|   -5.824813|
|         380|   -5.972828|   -4.297018|   -4.169826|   -5.827884|
|         381|   -5.974474|   -4.298168|   -4.171641|   -5.831057|
|         382|   -5.976357|   -4.299010|   -4.173818|   -5.834269|
|         383|   -5.978450|   -4.299465|   -4.176344|   -5.837432|
|         384|   -5.980659|   -4.299467|   -4.179086|   -5.840498|
|         385|   -5.983062|   -4.298977|   -4.182166|   -5.843434|
|         386|   -5.985597|   -4.297952|   -4.185468|   -5.846246|
|         387|   -5.988234|   -4.296373|   -4.188919|   -5.848959|
|         388|   -5.991018|   -4.294260|   -4.192573|   -5.851544|
|         389|   -5.993818|   -4.291696|   -4.196179|   -5.853951|
|         390|   -5.996712|   -4.288725|   -4.199786|   -5.856115|
|         391|   -5.999708|   -4.285403|   -4.203359|   -5.857995|
|         392|   -6.002772|   -4.281831|   -4.206864|   -5.859520|
|         393|   -6.005919|   -4.278151|   -4.210421|   -5.860623|
|         394|   -6.009077|   -4.274446|   -4.213923|   -5.861225|
|         395|   -6.012238|   -4.270857|   -4.217424|   -5.861272|
|         396|   -6.015369|   -4.267499|   -4.220960|   -5.860728|
|         397|   -6.018411|   -4.264496|   -4.224453|   -5.859580|
|         398|   -6.021369|   -4.261893|   -4.227844|   -5.857870|
|         399|   -6.024260|   -4.259668|   -4.231084|   -5.855715|
|         400|   -6.027125|   -4.257815|   -4.234082|   -5.853308|
|         401|   -6.030010|   -4.256187|   -4.233223|   -5.850874|
|         402|   -6.032408|   -4.254701|   -4.230136|   -5.848413|
|         403|   -6.034859|   -4.253001|   -4.226961|   -5.845970|
|         404|   -6.037602|   -4.250879|   -4.224718|   -5.843536|
|         405|   -6.040621|   -4.248287|   -4.223559|   -5.841091|
|         406|   -6.043811|   -4.245435|   -4.223648|   -5.838618|
|         407|   -6.047032|   -4.242609|   -4.224427|   -5.836102|
|         408|   -6.050221|   -4.240006|   -4.225682|   -5.833528|
|         409|   -6.053303|   -4.237578|   -4.227246|   -5.830809|
|         410|   -6.056278|   -4.235371|   -4.229610|   -5.827966|
|         411|   -6.059114|   -4.233403|   -4.232298|   -5.824978|
|         412|   -6.061912|   -4.231787|   -4.236075|   -5.821853|
|         413|   -6.064756|   -4.230362|   -4.240149|   -5.818557|
|         414|   -6.067766|   -4.229148|   -4.245352|   -5.814921|
|         415|   -6.070772|   -4.227760|   -4.250616|   -5.811130|
|         416|   -6.073838|   -4.226106|   -4.256317|   -5.807197|
|         417|   -6.077183|   -4.224087|   -4.262372|   -5.802920|
|         418|   -6.080260|   -4.221592|   -4.268468|   -5.798346|
|         419|   -6.083167|   -4.218604|   -4.274352|   -5.793566|
|         420|   -6.085693|   -4.215161|   -4.279507|   -5.788523|
|         421|   -6.088070|   -4.211185|   -4.283263|   -5.783328|
|         422|   -6.090147|   -4.206791|   -4.286618|   -5.777928|
|         423|   -6.092016|   -4.202021|   -4.289737|   -5.772383|
|         424|   -6.093546|   -4.196894|   -4.292580|   -5.766725|
|         425|   -6.094694|   -4.191376|   -4.295002|   -5.761023|
|         426|   -6.095415|   -4.185403|   -4.296740|   -5.755466|
|         427|   -6.095891|   -4.178934|   -4.297289|   -5.750186|
|         428|   -6.096314|   -4.172097|   -4.297248|   -5.745262|
|         429|   -6.096661|   -4.164983|   -4.296788|   -5.740816|
|         430|   -6.097021|   -4.157654|   -4.295854|   -5.736865|
|         431|   -6.097395|   -4.150191|   -4.294342|   -5.733387|
|         432|   -6.097738|   -4.142690|   -4.292193|   -5.730338|
|         433|   -6.098280|   -4.135242|   -4.289339|   -5.727575|
|         434|   -6.098870|   -4.127885|   -4.285734|   -5.724944|
|         435|   -6.099477|   -4.120653|   -4.281194|   -5.722297|
|         436|   -6.100097|   -4.113554|   -4.275234|   -5.719573|
|         437|   -6.101225|   -4.106738|   -4.268397|   -5.716547|
|         438|   -6.102370|   -4.100270|   -4.260992|   -5.713195|
|         439|   -6.103412|   -4.094178|   -4.253105|   -5.709453|
|         440|   -6.104199|   -4.088478|   -4.244858|   -5.705404|
|         441|   -6.104727|   -4.083194|   -4.236409|   -5.701178|
|         442|   -6.104907|   -4.078319|   -4.227805|   -5.696913|
|         443|   -6.105019|   -4.073768|   -4.219032|   -5.692699|
|         444|   -6.105197|   -4.069545|   -4.210119|   -5.688812|
|         445|   -6.105969|   -4.065726|   -4.201401|   -5.685309|
|         446|   -6.106987|   -4.062358|   -4.193293|   -5.682355|
|         447|   -6.108539|   -4.059338|   -4.186035|   -5.679983|
|         448|   -6.110787|   -4.056570|   -4.179585|   -5.678136|
|         449|   -6.113596|   -4.053860|   -4.173883|   -5.676762|
|         450|   -6.116786|   -4.051164|   -4.168762|   -5.675865|
|         451|   -6.120350|   -4.048409|   -4.163846|   -5.675502|
|         452|   -6.124705|   -4.045648|   -4.159437|   -5.675469|
|         453|   -6.128593|   -4.042876|   -4.155630|   -5.675722|
|         454|   -6.131701|   -4.040005|   -4.152509|   -5.676265|
|         455|   -6.134148|   -4.037053|   -4.150140|   -5.677137|
|         456|   -6.136277|   -4.034136|   -4.148817|   -5.678435|
|         457|   -6.139129|   -4.031519|   -4.149617|   -5.680040|
|         458|   -6.143908|   -4.029508|   -4.153129|   -5.681944|
|         459|   -6.152528|   -4.028111|   -4.159286|   -5.683920|
|         460|   -6.163909|   -4.028291|   -4.168205|   -5.685752|
|         461|   -6.178443|   -4.030132|   -4.179174|   -5.687355|
|         462|   -6.195198|   -4.032558|   -4.190553|   -5.688617|
|         463|   -6.211128|   -4.034403|   -4.200744|   -5.689481|
|         464|   -6.223959|   -4.035602|   -4.209371|   -5.689980|
|         465|   -6.234477|   -4.036365|   -4.216260|   -5.690150|
|         466|   -6.243589|   -4.036785|   -4.221569|   -5.689992|
|         467|   -6.251614|   -4.037051|   -4.225886|   -5.689475|
|         468|   -6.258102|   -4.037278|   -4.229775|   -5.688597|
|         469|   -6.263214|   -4.037509|   -4.233649|   -5.687370|
|         470|   -6.267536|   -4.037819|   -4.237795|   -5.685833|
|         471|   -6.271524|   -4.038221|   -4.242447|   -5.684000|
|         472|   -6.275045|   -4.038681|   -4.247469|   -5.681916|
|         473|   -6.278047|   -4.039094|   -4.252540|   -5.679635|
|         474|   -6.280526|   -4.039367|   -4.257340|   -5.677224|
|         475|   -6.282295|   -4.039453|   -4.261597|   -5.674771|
|         476|   -6.283111|   -4.039326|   -4.265165|   -5.672264|
|         477|   -6.282744|   -4.038989|   -4.268043|   -5.669643|
|         478|   -6.281137|   -4.038422|   -4.270034|   -5.666837|
|         479|   -6.278524|   -4.037556|   -4.270957|   -5.663925|
|         480|   -6.275261|   -4.036420|   -4.270901|   -5.660968|
|         481|   -6.270820|   -4.035002|   -4.269937|   -5.658267|
|         482|   -6.265124|   -4.033257|   -4.268130|   -5.655988|
|         483|   -6.259152|   -4.031282|   -4.265826|   -5.654086|
|         484|   -6.253140|   -4.029408|   -4.263105|   -5.652459|
|         485|   -6.247594|   -4.028051|   -4.259071|   -5.651068|
|         486|   -6.240453|   -4.027226|   -4.254541|   -5.649907|
|         487|   -6.233714|   -4.026340|   -4.253154|   -5.649018|
|         488|   -6.228552|   -4.025320|   -4.254048|   -5.648602|
|         489|   -6.225685|   -4.025045|   -4.255909|   -5.648698|
|         490|   -6.226057|   -4.026364|   -4.258396|   -5.649229|
|         491|   -6.226301|   -4.028798|   -4.261294|   -5.650248|
|         492|   -6.226962|   -4.031157|   -4.263940|   -5.651634|
|         493|   -6.227271|   -4.033551|   -4.265920|   -5.653178|
|         494|   -6.225974|   -4.036343|   -4.267381|   -5.654723|
|         495|   -6.222943|   -4.039475|   -4.267801|   -5.656276|
|         496|   -6.218130|   -4.042648|   -4.267336|   -5.657999|
|         497|   -6.212372|   -4.045556|   -4.265998|   -5.659993|
|         498|   -6.206969|   -4.048273|   -4.263827|   -5.662160|
|         499|   -6.201959|   -4.051021|   -4.261205|   -5.664249|
|         500|   -6.196986|   -4.053905|   -4.258794|   -5.666019|
+-----------------------------------------------------------------------+
|        File Writing Summary       |              Filename             |
+-----------------------------------------------------------------------+
|SU2 restart                        |restart_venturi_mixturedensity_30kW_fine_test.dat|
|                                   |                     (342.691 MB/s)|
|Paraview                           |flow_venturi_mixturedensity_30kW_fine_test_00000500.vtu|
|                                   |                     (3.02155 MB/s)|
|Paraview surface                   |surface_flow_venturi_mixturedensity_30kW_fine_test.vtu|
|                                   |                    (0.637743 MB/s)|
+-----------------------------------------------------------------------+
+----------------------------------------------------------------+
|  Inner_Iter|      rms[P]|      rms[U]|      rms[V]|      rms[c]|
+----------------------------------------------------------------+
|         501|   -6.191900|   -4.056881|   -4.256153|   -5.667435|
|         502|   -6.187562|   -4.059731|   -4.251955|   -5.668615|
|         503|   -6.184363|   -4.062257|   -4.247174|   -5.669685|
|         504|   -6.181517|   -4.064242|   -4.242331|   -5.670793|
|         505|   -6.178932|   -4.065902|   -4.237611|   -5.671976|
|         506|   -6.177089|   -4.067545|   -4.233002|   -5.673209|
|         507|   -6.176162|   -4.069456|   -4.228810|   -5.674474|
|         508|   -6.175666|   -4.071837|   -4.225283|   -5.675797|
|         509|   -6.174971|   -4.074761|   -4.222203|   -5.677207|
|         510|   -6.173729|   -4.078282|   -4.219166|   -5.678692|
|         511|   -6.171800|   -4.082402|   -4.215856|   -5.680194|
|         512|   -6.169254|   -4.087033|   -4.212074|   -5.681646|
|         513|   -6.166239|   -4.092028|   -4.207778|   -5.683017|
|         514|   -6.162920|   -4.097218|   -4.203013|   -5.684303|
|         515|   -6.159584|   -4.102410|   -4.197868|   -5.685508|
|         516|   -6.156393|   -4.107422|   -4.192549|   -5.686647|
|         517|   -6.153490|   -4.112097|   -4.187310|   -5.687731|
|         518|   -6.151049|   -4.116339|   -4.182356|   -5.688768|
|         519|   -6.149113|   -4.120090|   -4.177815|   -5.689760|
|         520|   -6.147590|   -4.123312|   -4.173730|   -5.690713|
|         521|   -6.146318|   -4.125950|   -4.170129|   -5.691634|
|         522|   -6.145149|   -4.127985|   -4.166996|   -5.692527|
|         523|   -6.143880|   -4.129423|   -4.164329|   -5.693404|
|         524|   -6.142331|   -4.130306|   -4.162137|   -5.694276|
|         525|   -6.140358|   -4.130727|   -4.160475|   -5.695159|
|         526|   -6.137847|   -4.130842|   -4.159360|   -5.696068|
|         527|   -6.134806|   -4.130839|   -4.158795|   -5.697012|
|         528|   -6.131351|   -4.130863|   -4.158739|   -5.697997|
|         529|   -6.127678|   -4.130980|   -4.159081|   -5.699022|
|         530|   -6.124033|   -4.131175|   -4.159713|   -5.700091|
|         531|   -6.120831|   -4.131323|   -4.160575|   -5.701213|
|         532|   -6.118578|   -4.131484|   -4.161476|   -5.702387|
|         533|   -6.117694|   -4.132272|   -4.162354|   -5.703610|
|         534|   -6.118484|   -4.134753|   -4.163079|   -5.704873|
|         535|   -6.120757|   -4.139858|   -4.163461|   -5.706179|
|         536|   -6.123709|   -4.146859|   -4.163813|   -5.707519|
|         537|   -6.126624|   -4.154752|   -4.164896|   -5.708896|
|         538|   -6.129115|   -4.162938|   -4.166858|   -5.710303|
|         539|   -6.131067|   -4.170636|   -4.169384|   -5.711726|
|         540|   -6.132550|   -4.177099|   -4.172178|   -5.713154|
|         541|   -6.133695|   -4.182131|   -4.175170|   -5.714574|
|         542|   -6.134613|   -4.186145|   -4.177935|   -5.715980|
|         543|   -6.135408|   -4.189646|   -4.180105|   -5.717361|
|         544|   -6.136122|   -4.192940|   -4.181650|   -5.718704|
|         545|   -6.136765|   -4.196170|   -4.182632|   -5.719999|
|         546|   -6.137339|   -4.199384|   -4.183180|   -5.721235|
|         547|   -6.137845|   -4.202650|   -4.183407|   -5.722404|
|         548|   -6.138287|   -4.205955|   -4.183433|   -5.723503|
|         549|   -6.138690|   -4.209263|   -4.183325|   -5.724534|
|         550|   -6.139072|   -4.212533|   -4.183143|   -5.725501|
|         551|   -6.139452|   -4.215729|   -4.182921|   -5.726413|
|         552|   -6.139849|   -4.218811|   -4.182681|   -5.727281|
|         553|   -6.140276|   -4.221740|   -4.182435|   -5.728117|
|         554|   -6.140744|   -4.224475|   -4.182194|   -5.728936|
|         555|   -6.141264|   -4.226974|   -4.181968|   -5.729752|
|         556|   -6.141842|   -4.229202|   -4.181771|   -5.730577|
|         557|   -6.142486|   -4.231138|   -4.181614|   -5.731425|
|         558|   -6.143199|   -4.232767|   -4.181508|   -5.732303|
|         559|   -6.143984|   -4.234080|   -4.181456|   -5.733217|
|         560|   -6.144848|   -4.235072|   -4.181466|   -5.734170|
|         561|   -6.145798|   -4.235742|   -4.181549|   -5.735160|
|         562|   -6.146844|   -4.236096|   -4.181716|   -5.736186|
|         563|   -6.147991|   -4.236146|   -4.181978|   -5.737242|
|         564|   -6.149248|   -4.235917|   -4.182346|   -5.738323|
|         565|   -6.150618|   -4.235435|   -4.182832|   -5.739423|
|         566|   -6.152101|   -4.234726|   -4.183445|   -5.740543|
|         567|   -6.153697|   -4.233817|   -4.184189|   -5.741681|
|         568|   -6.155400|   -4.232724|   -4.185060|   -5.742843|
|         569|   -6.157204|   -4.231459|   -4.186051|   -5.744035|
|         570|   -6.159099|   -4.230030|   -4.187157|   -5.745265|
|         571|   -6.161081|   -4.228441|   -4.188381|   -5.746543|
|         572|   -6.163146|   -4.226696|   -4.189722|   -5.747881|
|         573|   -6.165290|   -4.224799|   -4.191175|   -5.749288|
|         574|   -6.167507|   -4.222752|   -4.192734|   -5.750773|
|         575|   -6.169799|   -4.220560|   -4.194398|   -5.752344|
|         576|   -6.172169|   -4.218223|   -4.196172|   -5.754007|
|         577|   -6.174625|   -4.215748|   -4.198055|   -5.755764|
|         578|   -6.177172|   -4.213145|   -4.200033|   -5.757617|
|         579|   -6.179815|   -4.210428|   -4.202105|   -5.759567|
|         580|   -6.182561|   -4.207617|   -4.204290|   -5.761614|
|         581|   -6.185422|   -4.204729|   -4.206602|   -5.763757|
|         582|   -6.188401|   -4.201780|   -4.209040|   -5.765993|
|         583|   -6.191502|   -4.198780|   -4.211604|   -5.768323|
|         584|   -6.194728|   -4.195734|   -4.214296|   -5.770745|
|         585|   -6.198087|   -4.192649|   -4.217119|   -5.773257|
|         586|   -6.201584|   -4.189530|   -4.220074|   -5.775858|
|         587|   -6.205219|   -4.186381|   -4.223160|   -5.778546|
|         588|   -6.208994|   -4.183209|   -4.226374|   -5.781320|
|         589|   -6.212908|   -4.180021|   -4.229716|   -5.784177|
|         590|   -6.216964|   -4.176825|   -4.233182|   -5.787117|
|         591|   -6.221152|   -4.173627|   -4.236760|   -5.790135|
|         592|   -6.225462|   -4.170435|   -4.240444|   -5.793231|
|         593|   -6.229887|   -4.167256|   -4.244237|   -5.796401|
|         594|   -6.234427|   -4.164097|   -4.248149|   -5.799644|
|         595|   -6.239081|   -4.160966|   -4.252186|   -5.802956|
|         596|   -6.243850|   -4.157874|   -4.256358|   -5.806337|
|         597|   -6.248760|   -4.154817|   -4.260169|   -5.809779|
|         598|   -6.253716|   -4.151798|   -4.263770|   -5.813277|
|         599|   -6.258788|   -4.148826|   -4.267499|   -5.816829|
|         600|   -6.264050|   -4.145907|   -4.271492|   -5.820432|
|         601|   -6.269527|   -4.143039|   -4.275800|   -5.824084|
|         602|   -6.275218|   -4.140221|   -4.280415|   -5.827785|
|         603|   -6.281126|   -4.137455|   -4.285347|   -5.831533|
|         604|   -6.287265|   -4.134746|   -4.290614|   -5.835326|
|         605|   -6.293653|   -4.132103|   -4.296238|   -5.839164|
|         606|   -6.300311|   -4.129533|   -4.302241|   -5.843046|
|         607|   -6.307262|   -4.127042|   -4.308643|   -5.846972|
|         608|   -6.314536|   -4.124631|   -4.315473|   -5.850940|
|         609|   -6.322165|   -4.122301|   -4.322760|   -5.854951|
|         610|   -6.330167|   -4.120051|   -4.330508|   -5.859003|
|         611|   -6.338559|   -4.117884|   -4.338734|   -5.863097|
|         612|   -6.347363|   -4.115806|   -4.347466|   -5.867232|
|         613|   -6.356598|   -4.113822|   -4.356726|   -5.871409|
|         614|   -6.366279|   -4.111935|   -4.366522|   -5.875627|
|         615|   -6.376420|   -4.110149|   -4.376855|   -5.879888|
|         616|   -6.387029|   -4.108467|   -4.387720|   -5.884192|
|         617|   -6.398108|   -4.106889|   -4.399111|   -5.888540|
|         618|   -6.409653|   -4.105422|   -4.411008|   -5.892933|
|         619|   -6.421643|   -4.104073|   -4.423384|   -5.897372|
|         620|   -6.434057|   -4.102849|   -4.436215|   -5.901859|
|         621|   -6.446884|   -4.101761|   -4.449504|   -5.906396|
|         622|   -6.460074|   -4.100816|   -4.463188|   -5.910983|
|         623|   -6.473543|   -4.100019|   -4.477151|   -5.915622|
|         624|   -6.487211|   -4.099375|   -4.491305|   -5.920314|
|         625|   -6.500995|   -4.098882|   -4.505554|   -5.925059|
|         626|   -6.514787|   -4.098539|   -4.519775|   -5.929860|
|         627|   -6.528451|   -4.098342|   -4.533794|   -5.934717|
|         628|   -6.541834|   -4.098288|   -4.547423|   -5.939630|
|         629|   -6.554778|   -4.098375|   -4.560471|   -5.944600|
|         630|   -6.567095|   -4.098600|   -4.572730|   -5.949627|
|         631|   -6.578594|   -4.098957|   -4.584011|   -5.954709|
|         632|   -6.589083|   -4.099440|   -4.594142|   -5.959847|
|         633|   -6.598382|   -4.100043|   -4.602965|   -5.965038|
|         634|   -6.606327|   -4.100754|   -4.610335|   -5.970282|
|         635|   -6.612786|   -4.101566|   -4.616127|   -5.975577|
|         636|   -6.617671|   -4.102469|   -4.620253|   -5.980920|
|         637|   -6.620937|   -4.103457|   -4.622676|   -5.986310|
|         638|   -6.622622|   -4.104522|   -4.623407|   -5.991742|
|         639|   -6.622770|   -4.105662|   -4.622549|   -5.997213|
|         640|   -6.621494|   -4.106872|   -4.620264|   -6.002720|
|         641|   -6.618943|   -4.108148|   -4.616771|   -6.008258|
|         642|   -6.615283|   -4.109484|   -4.612294|   -6.013823|
|         643|   -6.610692|   -4.110873|   -4.607048|   -6.019414|
|         644|   -6.605349|   -4.112308|   -4.601238|   -6.025026|
|         645|   -6.599431|   -4.113781|   -4.595031|   -6.030661|
|         646|   -6.593110|   -4.115285|   -4.588567|   -6.036314|
|         647|   -6.586526|   -4.116816|   -4.581940|   -6.041983|
|         648|   -6.579789|   -4.118368|   -4.575231|   -6.047668|
|         649|   -6.573008|   -4.119944|   -4.568551|   -6.053368|
|         650|   -6.566268|   -4.121545|   -4.562008|   -6.059085|
|         651|   -6.559617|   -4.123180|   -4.555684|   -6.064817|
|         652|   -6.553078|   -4.124854|   -4.549623|   -6.070563|
|         653|   -6.546661|   -4.126576|   -4.543860|   -6.076322|
|         654|   -6.540367|   -4.128348|   -4.538408|   -6.082091|
|         655|   -6.534185|   -4.130175|   -4.533243|   -6.087870|
|         656|   -6.528104|   -4.132062|   -4.528338|   -6.093657|
|         657|   -6.522102|   -4.134014|   -4.523654|   -6.099451|
|         658|   -6.516153|   -4.136037|   -4.519143|   -6.105251|
|         659|   -6.510225|   -4.138138|   -4.514768|   -6.111054|
|         660|   -6.504290|   -4.140323|   -4.510499|   -6.116863|
|         661|   -6.498316|   -4.142594|   -4.506316|   -6.122675|
|         662|   -6.492260|   -4.144949|   -4.502183|   -6.128491|
|         663|   -6.486077|   -4.147390|   -4.498065|   -6.134314|
|         664|   -6.479733|   -4.149910|   -4.493949|   -6.140146|
|         665|   -6.473216|   -4.152508|   -4.489830|   -6.145993|
|         666|   -6.466519|   -4.155185|   -4.485697|   -6.151857|
|         667|   -6.459646|   -4.157946|   -4.481522|   -6.157743|
|         668|   -6.452599|   -4.160796|   -4.477269|   -6.163652|
|         669|   -6.445357|   -4.163742|   -4.472943|   -6.169587|
|         670|   -6.437950|   -4.166787|   -4.468572|   -6.175550|
|         671|   -6.430430|   -4.169932|   -4.464211|   -6.181538|
|         672|   -6.422799|   -4.173177|   -4.459855|   -6.187545|
|         673|   -6.415054|   -4.176519|   -4.455508|   -6.193564|
|         674|   -6.407202|   -4.179962|   -4.451211|   -6.199586|
|         675|   -6.399262|   -4.183505|   -4.447016|   -6.205599|
|         676|   -6.391251|   -4.187148|   -4.442949|   -6.211581|
|         677|   -6.383192|   -4.190887|   -4.439015|   -6.217510|
|         678|   -6.375096|   -4.194717|   -4.435206|   -6.223355|
|         679|   -6.366986|   -4.198632|   -4.431511|   -6.229084|
|         680|   -6.358888|   -4.202624|   -4.427929|   -6.234665|
|         681|   -6.350826|   -4.206691|   -4.424470|   -6.240055|
|         682|   -6.342816|   -4.210819|   -4.421158|   -6.245213|
|         683|   -6.334868|   -4.214990|   -4.418021|   -6.250099|
|         684|   -6.327001|   -4.219192|   -4.415097|   -6.254668|
|         685|   -6.319225|   -4.223405|   -4.412407|   -6.258877|
|         686|   -6.311537|   -4.227625|   -4.409942|   -6.262685|
|         687|   -6.303940|   -4.231859|   -4.407707|   -6.266048|
|         688|   -6.296442|   -4.236103|   -4.405728|   -6.268926|
|         689|   -6.289057|   -4.240358|   -4.404028|   -6.271278|
|         690|   -6.281782|   -4.244594|   -4.402621|   -6.273070|
|         691|   -6.274623|   -4.248773|   -4.401495|   -6.274271|
|         692|   -6.267647|   -4.252860|   -4.400247|   -6.274867|
|         693|   -6.260757|   -4.256864|   -4.399085|   -6.274836|
|         694|   -6.253991|   -4.260797|   -4.398162|   -6.274154|
|         695|   -6.247370|   -4.264657|   -4.397561|   -6.272801|
|         696|   -6.240893|   -4.268434|   -4.397314|   -6.270769|
|         697|   -6.234548|   -4.272121|   -4.397427|   -6.268056|
|         698|   -6.228332|   -4.275704|   -4.397825|   -6.264680|
|         699|   -6.222229|   -4.279171|   -4.398491|   -6.260668|
|         700|   -6.216231|   -4.282513|   -4.399563|   -6.256039|
|         701|   -6.210351|   -4.285736|   -4.401115|   -6.250826|
|         702|   -6.204592|   -4.288853|   -4.403204|   -6.245075|
|         703|   -6.199006|   -4.291883|   -4.405147|   -6.238916|
|         704|   -6.193473|   -4.294868|   -4.407136|   -6.232418|
|         705|   -6.187998|   -4.297833|   -4.409484|   -6.225649|
|         706|   -6.182611|   -4.300835|   -4.412291|   -6.218674|
|         707|   -6.177294|   -4.303945|   -4.415577|   -6.211612|
|         708|   -6.172029|   -4.307244|   -4.419367|   -6.204567|
|         709|   -6.166794|   -4.310815|   -4.423689|   -6.197700|
|         710|   -6.161831|   -4.314658|   -4.424806|   -6.191615|
|         711|   -6.156625|   -4.318891|   -4.423311|   -6.186421|
|         712|   -6.151254|   -4.323513|   -4.421238|   -6.181946|
|         713|   -6.146041|   -4.328448|   -4.419206|   -6.178008|
|         714|   -6.141056|   -4.333648|   -4.417420|   -6.174394|
|         715|   -6.136282|   -4.339049|   -4.415911|   -6.170935|
|         716|   -6.131698|   -4.344567|   -4.414702|   -6.167507|
|         717|   -6.127440|   -4.350032|   -4.410447|   -6.164282|
|         718|   -6.122996|   -4.355476|   -4.404872|   -6.161027|
|         719|   -6.118572|   -4.360823|   -4.399179|   -6.157606|
|         720|   -6.114308|   -4.366053|   -4.393716|   -6.153992|
|         721|   -6.110280|   -4.371211|   -4.388674|   -6.150189|
|         722|   -6.106481|   -4.376339|   -4.384039|   -6.146282|
|         723|   -6.102927|   -4.381475|   -4.379798|   -6.142367|
|         724|   -6.099571|   -4.386614|   -4.375862|   -6.138554|
|         725|   -6.096371|   -4.391755|   -4.372156|   -6.134910|
|         726|   -6.093333|   -4.396915|   -4.368680|   -6.131438|
|         727|   -6.090455|   -4.402116|   -4.365426|   -6.128126|
|         728|   -6.087704|   -4.407366|   -4.362297|   -6.124968|
|         729|   -6.085158|   -4.412687|   -4.359406|   -6.121939|
|         730|   -6.082753|   -4.418054|   -4.356624|   -6.119001|
|         731|   -6.080492|   -4.423436|   -4.353955|   -6.116132|
|         732|   -6.078366|   -4.428773|   -4.351384|   -6.113311|
|         733|   -6.076394|   -4.434028|   -4.348946|   -6.110521|
|         734|   -6.074579|   -4.439150|   -4.346657|   -6.107758|
|         735|   -6.072815|   -4.444042|   -4.344309|   -6.105068|
|         736|   -6.071267|   -4.448720|   -4.342221|   -6.102417|
|         737|   -6.069831|   -4.453140|   -4.340212|   -6.099737|
|         738|   -6.068538|   -4.457281|   -4.338332|   -6.097003|
|         739|   -6.067388|   -4.461106|   -4.336583|   -6.094223|
|         740|   -6.066386|   -4.464568|   -4.334967|   -6.091450|
|         741|   -6.065587|   -4.467634|   -4.333585|   -6.088698|
|         742|   -6.064896|   -4.470222|   -4.332248|   -6.085920|
|         743|   -6.064358|   -4.472290|   -4.331045|   -6.083058|
|         744|   -6.063974|   -4.473789|   -4.329979|   -6.080103|
|         745|   -6.063707|   -4.474699|   -4.328986|   -6.077091|
|         746|   -6.063574|   -4.475060|   -4.328128|   -6.074039|
|         747|   -6.063562|   -4.474937|   -4.327413|   -6.070946|
|         748|   -6.063649|   -4.474390|   -4.326796|   -6.067819|
|         749|   -6.063827|   -4.473446|   -4.326255|   -6.064691|
|         750|   -6.064133|   -4.472121|   -4.325872|   -6.061634|
|         751|   -6.064551|   -4.470413|   -4.325599|   -6.058728|
|         752|   -6.065072|   -4.468353|   -4.325393|   -6.055978|
|         753|   -6.065693|   -4.466030|   -4.325256|   -6.053302|
|         754|   -6.066429|   -4.463550|   -4.325188|   -6.050575|
|         755|   -6.067282|   -4.460984|   -4.325182|   -6.047703|
|         756|   -6.068262|   -4.458389|   -4.325259|   -6.044625|
|         757|   -6.069365|   -4.455849|   -4.325446|   -6.041323|
|         758|   -6.070552|   -4.453386|   -4.325727|   -6.037792|
|         759|   -6.071810|   -4.451025|   -4.326132|   -6.034050|
|         760|   -6.073118|   -4.448787|   -4.326660|   -6.030122|
|         761|   -6.074465|   -4.446745|   -4.327296|   -6.026028|
|         762|   -6.075839|   -4.444988|   -4.328014|   -6.021775|
|         763|   -6.077219|   -4.443555|   -4.328801|   -6.017368|
|         764|   -6.078593|   -4.442450|   -4.329678|   -6.012860|
|         765|   -6.079953|   -4.441611|   -4.330659|   -6.008354|
|         766|   -6.081287|   -4.440994|   -4.331746|   -6.003985|
|         767|   -6.082583|   -4.440578|   -4.332914|   -5.999880|
|         768|   -6.083830|   -4.440348|   -4.334139|   -5.996099|
|         769|   -6.085034|   -4.440298|   -4.335405|   -5.992637|
|         770|   -6.086198|   -4.440423|   -4.336722|   -5.989473|
|         771|   -6.087330|   -4.440706|   -4.338102|   -5.986588|
|         772|   -6.088424|   -4.441114|   -4.339569|   -5.983973|
|         773|   -6.089482|   -4.441641|   -4.341132|   -5.981629|
|         774|   -6.090499|   -4.442235|   -4.342780|   -5.979540|
|         775|   -6.091472|   -4.442861|   -4.344508|   -5.977677|
|         776|   -6.092425|   -4.443461|   -4.346307|   -5.976026|
|         777|   -6.093337|   -4.443961|   -4.348184|   -5.974574|
|         778|   -6.094218|   -4.444317|   -4.350150|   -5.973361|
|         779|   -6.095100|   -4.444512|   -4.352212|   -5.972432|
|         780|   -6.095978|   -4.444516|   -4.354367|   -5.971664|
|         781|   -6.096869|   -4.444293|   -4.356590|   -5.971096|
|         782|   -6.097726|   -4.443801|   -4.358865|   -5.970775|
|         783|   -6.098623|   -4.442997|   -4.361174|   -5.970663|
|         784|   -6.099599|   -4.441872|   -4.363500|   -5.970720|
|         785|   -6.100581|   -4.440372|   -4.365823|   -5.971089|
|         786|   -6.101653|   -4.438443|   -4.368134|   -5.971646|
|         787|   -6.102803|   -4.436072|   -4.370427|   -5.972618|
|         788|   -6.104058|   -4.433275|   -4.372711|   -5.973949|
|         789|   -6.105453|   -4.429992|   -4.374981|   -5.975517|
|         790|   -6.106984|   -4.426236|   -4.377246|   -5.977276|
|         791|   -6.108628|   -4.422016|   -4.379528|   -5.979404|
|         792|   -6.110461|   -4.417351|   -4.381857|   -5.981863|
|         793|   -6.112444|   -4.412259|   -4.384249|   -5.984753|
|         794|   -6.114660|   -4.406790|   -4.386729|   -5.988060|
|         795|   -6.117045|   -4.400965|   -4.389320|   -5.992003|
|         796|   -6.119722|   -4.394811|   -4.392026|   -5.996394|
|         797|   -6.122623|   -4.388427|   -4.394874|   -6.001311|
|         798|   -6.125778|   -4.381836|   -4.397893|   -6.006759|
|         799|   -6.129180|   -4.375102|   -4.401102|   -6.012751|
|         800|   -6.132827|   -4.368292|   -4.404511|   -6.019271|
|         801|   -6.136711|   -4.361449|   -4.408157|   -6.026298|
|         802|   -6.140823|   -4.354639|   -4.412065|   -6.033785|
|         803|   -6.145155|   -4.347911|   -4.416232|   -6.041646|
|         804|   -6.149689|   -4.341312|   -4.420661|   -6.049825|
|         805|   -6.154418|   -4.334877|   -4.425329|   -6.058216|
|         806|   -6.159325|   -4.328625|   -4.430193|   -6.066796|
|         807|   -6.164388|   -4.322578|   -4.435190|   -6.075472|
|         808|   -6.169593|   -4.316744|   -4.440243|   -6.084155|
|         809|   -6.174917|   -4.311139|   -4.445238|   -6.092777|
|         810|   -6.180335|   -4.305766|   -4.450072|   -6.101243|
|         811|   -6.185818|   -4.300615|   -4.454643|   -6.109436|
|         812|   -6.191332|   -4.295691|   -4.458826|   -6.117282|
|         813|   -6.196848|   -4.290993|   -4.462525|   -6.124760|
|         814|   -6.202334|   -4.286534|   -4.465624|   -6.131849|
|         815|   -6.207769|   -4.282327|   -4.468086|   -6.138535|
|         816|   -6.213147|   -4.278388|   -4.469910|   -6.144756|
|         817|   -6.218432|   -4.274732|   -4.471136|   -6.150533|
|         818|   -6.223586|   -4.271361|   -4.471835|   -6.155911|
|         819|   -6.228603|   -4.268283|   -4.472163|   -6.160910|
|         820|   -6.233489|   -4.265553|   -4.472234|   -6.165604|
|         821|   -6.238275|   -4.263127|   -4.472241|   -6.170036|
|         822|   -6.242997|   -4.260998|   -4.472198|   -6.174326|
|         823|   -6.247678|   -4.259143|   -4.471971|   -6.178314|
|         824|   -6.252331|   -4.257537|   -4.471395|   -6.181928|
|         825|   -6.256937|   -4.256132|   -4.470386|   -6.185133|
|         826|   -6.261482|   -4.254873|   -4.468847|   -6.187687|
|         827|   -6.265880|   -4.253711|   -4.466814|   -6.189470|
|         828|   -6.270090|   -4.252612|   -4.464354|   -6.190459|
|         829|   -6.274049|   -4.251552|   -4.461559|   -6.190554|
|         830|   -6.277730|   -4.250540|   -4.458456|   -6.189737|
|         831|   -6.281136|   -4.249577|   -4.455050|   -6.188039|
|         832|   -6.284276|   -4.248702|   -4.451360|   -6.185453|
|         833|   -6.287209|   -4.247942|   -4.447464|   -6.181976|
|         834|   -6.290023|   -4.247323|   -4.443437|   -6.177774|
|         835|   -6.292708|   -4.246815|   -4.439358|   -6.172751|
|         836|   -6.295346|   -4.246409|   -4.435367|   -6.166916|
|         837|   -6.297893|   -4.246115|   -4.431609|   -6.160368|
|         838|   -6.300327|   -4.245933|   -4.428173|   -6.153200|
|         839|   -6.302569|   -4.245859|   -4.425081|   -6.145508|
|         840|   -6.304618|   -4.245879|   -4.422256|   -6.137376|
|         841|   -6.306378|   -4.245969|   -4.419584|   -6.128944|
|         842|   -6.307764|   -4.246144|   -4.416918|   -6.120334|
|         843|   -6.308755|   -4.246347|   -4.414157|   -6.111767|
|         844|   -6.309429|   -4.246559|   -4.411212|   -6.103254|
|         845|   -6.309924|   -4.246674|   -4.408092|   -6.094677|
|         846|   -6.310188|   -4.246631|   -4.404873|   -6.086025|
|         847|   -6.310229|   -4.246380|   -4.401770|   -6.077558|
|         848|   -6.309996|   -4.246008|   -4.398998|   -6.069591|
|         849|   -6.309435|   -4.245634|   -4.396700|   -6.062263|
|         850|   -6.308991|   -4.245405|   -4.394775|   -6.055592|
|         851|   -6.309149|   -4.245445|   -4.392796|   -6.049549|
|         852|   -6.309763|   -4.245644|   -4.391090|   -6.044501|
|         853|   -6.310758|   -4.245780|   -4.390720|   -6.040628|
|         854|   -6.312517|   -4.245737|   -4.391854|   -6.037578|
|         855|   -6.315992|   -4.245542|   -4.394124|   -6.034743|
|         856|   -6.321064|   -4.245553|   -4.396954|   -6.031967|
|         857|   -6.326118|   -4.246049|   -4.399949|   -6.029210|
|         858|   -6.330566|   -4.246886|   -4.403057|   -6.026086|
|         859|   -6.334769|   -4.247655|   -4.406145|   -6.022346|
|         860|   -6.338119|   -4.248127|   -4.408791|   -6.018044|
|         861|   -6.339985|   -4.248361|   -4.410714|   -6.013443|
|         862|   -6.340389|   -4.248476|   -4.412009|   -6.009066|
|         863|   -6.339652|   -4.248496|   -4.412694|   -6.005571|
|         864|   -6.338458|   -4.248373|   -4.412561|   -6.003290|
|         865|   -6.337325|   -4.247999|   -4.411785|   -6.001810|
|         866|   -6.336577|   -4.247426|   -4.410603|   -6.000275|
|         867|   -6.336034|   -4.246921|   -4.409523|   -5.998178|
|         868|   -6.335614|   -4.246792|   -4.409050|   -5.995572|
|         869|   -6.335250|   -4.247279|   -4.408958|   -5.992948|
|         870|   -6.335085|   -4.248096|   -4.408717|   -5.990879|
|         871|   -6.335810|   -4.248915|   -4.408673|   -5.989665|
|         872|   -6.338817|   -4.249620|   -4.409705|   -5.989183|
|         873|   -6.344969|   -4.250233|   -4.412377|   -5.989248|
|         874|   -6.354191|   -4.250830|   -4.416807|   -5.989666|
|         875|   -6.366011|   -4.251504|   -4.422704|   -5.990172|
|         876|   -6.379869|   -4.252284|   -4.429521|   -5.990544|
|         877|   -6.395042|   -4.253186|   -4.436641|   -5.990646|
|         878|   -6.410747|   -4.254215|   -4.443128|   -5.990449|
|         879|   -6.427211|   -4.255325|   -4.448956|   -5.989972|
|         880|   -6.443795|   -4.256459|   -4.454447|   -5.989242|
|         881|   -6.458916|   -4.257569|   -4.459242|   -5.988321|
|         882|   -6.472174|   -4.258579|   -4.463350|   -5.987266|
|         883|   -6.483816|   -4.259436|   -4.466937|   -5.986133|
|         884|   -6.493982|   -4.260118|   -4.470089|   -5.984964|
|         885|   -6.502639|   -4.260643|   -4.472755|   -5.983786|
|         886|   -6.509867|   -4.261016|   -4.474830|   -5.982629|
|         887|   -6.515920|   -4.261314|   -4.476214|   -5.981514|
|         888|   -6.521169|   -4.261607|   -4.476769|   -5.980455|
|         889|   -6.525899|   -4.261980|   -4.476330|   -5.979463|
|         890|   -6.530232|   -4.262618|   -4.474791|   -5.978536|
|         891|   -6.534093|   -4.263550|   -4.472156|   -5.977666|
|         892|   -6.537109|   -4.264744|   -4.469045|   -5.976850|
|         893|   -6.538876|   -4.265943|   -4.465785|   -5.976095|
|         894|   -6.539113|   -4.267034|   -4.462556|   -5.975401|
|         895|   -6.537664|   -4.267934|   -4.459337|   -5.974762|
|         896|   -6.534481|   -4.268566|   -4.455996|   -5.974160|
|         897|   -6.529596|   -4.268850|   -4.452256|   -5.973577|
|         898|   -6.523055|   -4.268720|   -4.447770|   -5.972991|
|         899|   -6.514995|   -4.268125|   -4.442329|   -5.972385|
|         900|   -6.506484|   -4.267066|   -4.435647|   -5.971777|
|         901|   -6.497576|   -4.265674|   -4.427863|   -5.971149|
|         902|   -6.488602|   -4.264041|   -4.419367|   -5.970486|
|         903|   -6.479936|   -4.262305|   -4.410425|   -5.969781|
|         904|   -6.471695|   -4.260626|   -4.401265|   -5.969044|
|         905|   -6.463807|   -4.259142|   -4.392079|   -5.968271|
|         906|   -6.455880|   -4.257857|   -4.383107|   -5.967450|
|         907|   -6.447273|   -4.256728|   -4.374593|   -5.966557|
|         908|   -6.437145|   -4.255560|   -4.366728|   -5.965547|
|         909|   -6.425264|   -4.254113|   -4.359279|   -5.964492|
|         910|   -6.411166|   -4.252344|   -4.352265|   -5.963447|
|         911|   -6.394301|   -4.250194|   -4.346509|   -5.962332|
|         912|   -6.374865|   -4.247735|   -4.342308|   -5.961158|
|         913|   -6.353966|   -4.245495|   -4.339644|   -5.959924|
|         914|   -6.332751|   -4.243995|   -4.338712|   -5.958694|
|         915|   -6.312527|   -4.243618|   -4.339687|   -5.957505|
|         916|   -6.294449|   -4.244525|   -4.342551|   -5.956347|
|         917|   -6.279342|   -4.246590|   -4.347057|   -5.955159|
|         918|   -6.267881|   -4.249542|   -4.352564|   -5.953925|
|         919|   -6.261378|   -4.253285|   -4.358224|   -5.952675|
|         920|   -6.260842|   -4.258833|   -4.363052|   -5.951430|
|         921|   -6.266619|   -4.267461|   -4.366296|   -5.950206|
|         922|   -6.274895|   -4.279697|   -4.367721|   -5.949200|
|         923|   -6.280681|   -4.292899|   -4.370391|   -5.948535|
|         924|   -6.283215|   -4.305018|   -4.376314|   -5.948106|
|         925|   -6.282998|   -4.315095|   -4.384117|   -5.947766|
|         926|   -6.281022|   -4.322886|   -4.392322|   -5.947397|
|         927|   -6.277907|   -4.329005|   -4.400487|   -5.946954|
|         928|   -6.274533|   -4.334348|   -4.407870|   -5.946418|
|         929|   -6.271074|   -4.339375|   -4.413641|   -5.945770|
|         930|   -6.267534|   -4.344174|   -4.417911|   -5.945019|
|         931|   -6.263832|   -4.349053|   -4.421046|   -5.944181|
|         932|   -6.259991|   -4.354031|   -4.423326|   -5.943268|
|         933|   -6.256160|   -4.359121|   -4.424900|   -5.942304|
|         934|   -6.252438|   -4.364347|   -4.425847|   -5.941323|
|         935|   -6.248910|   -4.369720|   -4.426233|   -5.940363|
|         936|   -6.245666|   -4.375195|   -4.426130|   -5.939455|
|         937|   -6.242784|   -4.380678|   -4.425629|   -5.938618|
|         938|   -6.240331|   -4.386060|   -4.424840|   -5.937860|
|         939|   -6.238337|   -4.391245|   -4.423835|   -5.937181|
|         940|   -6.236778|   -4.396150|   -4.422711|   -5.936583|
|         941|   -6.235574|   -4.400705|   -4.421476|   -5.936063|
|         942|   -6.234629|   -4.404884|   -4.420137|   -5.935622|
|         943|   -6.233832|   -4.408655|   -4.418655|   -5.935262|
|         944|   -6.233100|   -4.411989|   -4.416971|   -5.934986|
|         945|   -6.232396|   -4.414884|   -4.415038|   -5.934794|
|         946|   -6.231692|   -4.417351|   -4.412855|   -5.934678|
|         947|   -6.230981|   -4.419413|   -4.410413|   -5.934622|
|         948|   -6.230256|   -4.421115|   -4.407709|   -5.934608|
|         949|   -6.229512|   -4.422510|   -4.404764|   -5.934614|
|         950|   -6.228740|   -4.423666|   -4.401606|   -5.934620|
|         951|   -6.227930|   -4.424640|   -4.398260|   -5.934609|
|         952|   -6.227073|   -4.425497|   -4.394737|   -5.934567|
|         953|   -6.226167|   -4.426307|   -4.391040|   -5.934484|
|         954|   -6.225206|   -4.427098|   -4.387159|   -5.934349|
|         955|   -6.224217|   -4.427869|   -4.383084|   -5.934157|
|         956|   -6.223224|   -4.428613|   -4.378815|   -5.933908|
|         957|   -6.222228|   -4.429331|   -4.374382|   -5.933604|
|         958|   -6.221245|   -4.430059|   -4.369797|   -5.933248|
|         959|   -6.220299|   -4.430804|   -4.365093|   -5.932837|
|         960|   -6.219407|   -4.431562|   -4.360292|   -5.932371|
|         961|   -6.218579|   -4.432343|   -4.355407|   -5.931852|
|         962|   -6.217816|   -4.433155|   -4.350448|   -5.931283|
|         963|   -6.217118|   -4.433988|   -4.345437|   -5.930666|
|         964|   -6.216487|   -4.434822|   -4.340414|   -5.930007|
[...]
|        1143|   -6.286050|   -4.363875|   -4.525160|   -6.233369|
|        1144|   -6.281364|   -4.368125|   -4.530392|   -6.233002|
|        1145|   -6.276761|   -4.372288|   -4.536030|   -6.232689|
|        1146|   -6.272260|   -4.376344|   -4.541942|   -6.232436|
|        1147|   -6.267864|   -4.380274|   -4.547974|   -6.232252|
|        1148|   -6.263543|   -4.384068|   -4.554247|   -6.232130|
|        1149|   -6.259302|   -4.387718|   -4.560930|   -6.232056|
|        1150|   -6.255152|   -4.391220|   -4.568091|   -6.232024|
|        1151|   -6.251398|   -4.394495|   -4.572221|   -6.232150|
|        1152|   -6.247357|   -4.397580|   -4.573952|   -6.232290|
|        1153|   -6.243010|   -4.400543|   -4.574986|   -6.232304|
|        1154|   -6.238588|   -4.403426|   -4.575732|   -6.232167|
|        1155|   -6.234182|   -4.406276|   -4.576429|   -6.231894|
|        1156|   -6.229877|   -4.409152|   -4.577225|   -6.231514|
|        1157|   -6.225712|   -4.412094|   -4.578249|   -6.231032|
|        1158|   -6.221691|   -4.415128|   -4.579504|   -6.230460|
|        1159|   -6.217790|   -4.418267|   -4.580919|   -6.229818|
|        1160|   -6.213977|   -4.421511|   -4.582429|   -6.229133|
|        1161|   -6.210231|   -4.424871|   -4.583943|   -6.228419|
|        1162|   -6.206538|   -4.428349|   -4.585391|   -6.227710|
|        1163|   -6.202882|   -4.431944|   -4.586704|   -6.227016|
|        1164|   -6.199253|   -4.435661|   -4.587812|   -6.226335|
|        1165|   -6.195650|   -4.439499|   -4.588674|   -6.225670|
|        1166|   -6.192079|   -4.443460|   -4.589279|   -6.225045|
|        1167|   -6.188548|   -4.447545|   -4.589640|   -6.224443|
|        1168|   -6.185066|   -4.451759|   -4.589790|   -6.223898|
|        1169|   -6.181647|   -4.456095|   -4.589774|   -6.223365|
|        1170|   -6.178303|   -4.460545|   -4.589654|   -6.222848|
|        1171|   -6.175046|   -4.465104|   -4.589495|   -6.222378|
|        1172|   -6.171885|   -4.469760|   -4.589344|   -6.221930|
|        1173|   -6.168821|   -4.474500|   -4.589240|   -6.221468|
|        1174|   -6.165856|   -4.479313|   -4.589206|   -6.221040|
|        1175|   -6.162982|   -4.484190|   -4.589242|   -6.220602|
|        1176|   -6.160195|   -4.489126|   -4.589343|   -6.220143|
|        1177|   -6.157490|   -4.494112|   -4.589494|   -6.219662|
|        1178|   -6.154897|   -4.499128|   -4.588614|   -6.219165|
|        1179|   -6.152281|   -4.504150|   -4.585829|   -6.218652|
|        1180|   -6.149475|   -4.509183|   -4.582254|   -6.218084|
|        1181|   -6.146638|   -4.514225|   -4.578277|   -6.217449|
|        1182|   -6.143863|   -4.519285|   -4.574188|   -6.216738|
|        1183|   -6.141201|   -4.524359|   -4.570169|   -6.215940|
|        1184|   -6.138663|   -4.529436|   -4.566277|   -6.215044|
|        1185|   -6.136259|   -4.534502|   -4.562540|   -6.214034|
|        1186|   -6.133978|   -4.539528|   -4.558937|   -6.212910|
|        1187|   -6.131825|   -4.544492|   -4.555489|   -6.211661|
|        1188|   -6.129783|   -4.549373|   -4.552144|   -6.210285|
|        1189|   -6.127827|   -4.554135|   -4.548822|   -6.208772|
|        1190|   -6.125978|   -4.558763|   -4.545605|   -6.207108|
|        1191|   -6.124232|   -4.563235|   -4.542529|   -6.205287|
|        1192|   -6.122569|   -4.567526|   -4.539533|   -6.203313|
|        1193|   -6.120980|   -4.571611|   -4.536598|   -6.201196|
|        1194|   -6.119471|   -4.575476|   -4.533749|   -6.198948|
|        1195|   -6.118038|   -4.579099|   -4.530979|   -6.196584|
|        1196|   -6.116680|   -4.582459|   -4.528298|   -6.194121|
|        1197|   -6.115397|   -4.585540|   -4.525716|   -6.191568|
|        1198|   -6.114188|   -4.588337|   -4.523242|   -6.188928|
|        1199|   -6.113058|   -4.590847|   -4.520884|   -6.186191|
|        1200|   -6.112002|   -4.593076|   -4.518648|   -6.183360|
|        1201|   -6.111027|   -4.595034|   -4.516560|   -6.180443|
|        1202|   -6.110115|   -4.596731|   -4.514579|   -6.177473|
|        1203|   -6.109269|   -4.598186|   -4.512723|   -6.174467|
|        1204|   -6.108485|   -4.599423|   -4.510990|   -6.171479|
|        1205|   -6.107759|   -4.600463|   -4.509369|   -6.168528|
|        1206|   -6.107087|   -4.601330|   -4.507872|   -6.165645|
|        1207|   -6.106469|   -4.602050|   -4.506497|   -6.162866|
|        1208|   -6.105896|   -4.602639|   -4.505214|   -6.160221|
|        1209|   -6.105365|   -4.603119|   -4.504020|   -6.157745|
|        1210|   -6.104877|   -4.603485|   -4.502908|   -6.155468|
|        1211|   -6.104436|   -4.603743|   -4.501866|   -6.153383|
|        1212|   -6.104032|   -4.603925|   -4.500891|   -6.151496|
|        1213|   -6.103651|   -4.604011|   -4.499972|   -6.149835|
|        1214|   -6.103319|   -4.604026|   -4.499102|   -6.148339|
|        1215|   -6.103021|   -4.603962|   -4.498277|   -6.147018|
|        1216|   -6.102743|   -4.603780|   -4.497486|   -6.145882|
|        1217|   -6.102503|   -4.603527|   -4.496734|   -6.144874|
|        1218|   -6.102331|   -4.603213|   -4.496015|   -6.143971|
|        1219|   -6.102178|   -4.602779|   -4.495325|   -6.143129|
|        1220|   -6.102083|   -4.602257|   -4.494673|   -6.142298|
|        1221|   -6.102047|   -4.601669|   -4.494070|   -6.141475|
|        1222|   -6.102051|   -4.601024|   -4.493502|   -6.140567|
|        1223|   -6.102125|   -4.600336|   -4.492950|   -6.139505|
|        1224|   -6.102244|   -4.599654|   -4.492380|   -6.138331|
|        1225|   -6.102414|   -4.598984|   -4.491761|   -6.137085|
|        1226|   -6.102657|   -4.598354|   -4.491135|   -6.135753|
|        1227|   -6.102990|   -4.597818|   -4.490539|   -6.134351|
|        1228|   -6.103396|   -4.597394|   -4.490053|   -6.132879|
|        1229|   -6.103864|   -4.597036|   -4.489751|   -6.131353|
|        1230|   -6.104395|   -4.596688|   -4.489675|   -6.129709|
|        1231|   -6.104974|   -4.596271|   -4.489815|   -6.127948|
|        1232|   -6.105597|   -4.595742|   -4.490103|   -6.126076|
|        1233|   -6.106259|   -4.595087|   -4.490461|   -6.124112|
|        1234|   -6.106957|   -4.594290|   -4.490840|   -6.122125|
|        1235|   -6.107696|   -4.593367|   -4.491249|   -6.120200|
|        1236|   -6.108480|   -4.592328|   -4.491709|   -6.118387|
|        1237|   -6.109303|   -4.591145|   -4.492259|   -6.116753|
|        1238|   -6.110167|   -4.589783|   -4.492921|   -6.115367|
|        1239|   -6.111073|   -4.588234|   -4.493693|   -6.114302|
|        1240|   -6.112027|   -4.586480|   -4.494561|   -6.113608|
|        1241|   -6.113032|   -4.584503|   -4.495493|   -6.113349|
|        1242|   -6.114098|   -4.582287|   -4.496455|   -6.113556|
|        1243|   -6.115229|   -4.579824|   -4.497434|   -6.114231|
|        1244|   -6.116441|   -4.577120|   -4.498436|   -6.115374|
|        1245|   -6.117738|   -4.574148|   -4.499453|   -6.116958|
|        1246|   -6.119127|   -4.570903|   -4.500494|   -6.118923|
|        1247|   -6.120615|   -4.567393|   -4.501560|   -6.121196|
|        1248|   -6.122203|   -4.563631|   -4.502649|   -6.123652|
|        1249|   -6.123891|   -4.559630|   -4.503754|   -6.126178|
|        1250|   -6.125673|   -4.555395|   -4.504866|   -6.128680|
|        1251|   -6.127539|   -4.550944|   -4.505975|   -6.131086|
|        1252|   -6.129485|   -4.546289|   -4.507075|   -6.133365|
|        1253|   -6.131508|   -4.541454|   -4.508156|   -6.135490|
|        1254|   -6.133602|   -4.536452|   -4.509212|   -6.137480|
|        1255|   -6.135763|   -4.531302|   -4.510235|   -6.139398|
|        1256|   -6.137984|   -4.526029|   -4.511211|   -6.141284|
|        1257|   -6.140259|   -4.520657|   -4.512121|   -6.143176|
|        1258|   -6.142586|   -4.515209|   -4.512945|   -6.145111|
|        1259|   -6.144960|   -4.509707|   -4.513655|   -6.147117|
|        1260|   -6.147372|   -4.504185|   -4.514219|   -6.149227|
|        1261|   -6.149816|   -4.498669|   -4.514616|   -6.151467|
|        1262|   -6.152288|   -4.493180|   -4.514820|   -6.153841|
|        1263|   -6.154781|   -4.487746|   -4.514819|   -6.156346|
|        1264|   -6.157291|   -4.482386|   -4.514593|   -6.158954|
|        1265|   -6.159814|   -4.477122|   -4.514122|   -6.161652|
|        1266|   -6.162349|   -4.471946|   -4.513386|   -6.164462|
|        1267|   -6.164890|   -4.466860|   -4.512352|   -6.167337|
|        1268|   -6.167435|   -4.461896|   -4.510974|   -6.170336|
|        1269|   -6.169967|   -4.457062|   -4.509206|   -6.173410|
|        1270|   -6.172483|   -4.452348|   -4.507053|   -6.176539|
|        1271|   -6.174988|   -4.447719|   -4.504552|   -6.179728|
|        1272|   -6.177481|   -4.443179|   -4.501787|   -6.183007|
|        1273|   -6.179951|   -4.438734|   -4.498815|   -6.186435|
|        1274|   -6.182391|   -4.434395|   -4.495691|   -6.190027|
|        1275|   -6.184805|   -4.430192|   -4.492450|   -6.193806|
|        1276|   -6.187215|   -4.426164|   -4.489134|   -6.197771|
|        1277|   -6.189640|   -4.422350|   -4.485762|   -6.201958|
|        1278|   -6.192076|   -4.418756|   -4.482345|   -6.206391|
|        1279|   -6.194542|   -4.415360|   -4.478907|   -6.211079|
|        1280|   -6.197025|   -4.412140|   -4.475460|   -6.216031|
|        1281|   -6.199503|   -4.409076|   -4.472032|   -6.221274|
|        1282|   -6.201972|   -4.406164|   -4.468651|   -6.226846|
|        1283|   -6.204395|   -4.403384|   -4.465266|   -6.232791|
|        1284|   -6.206770|   -4.400728|   -4.461901|   -6.239174|
|        1285|   -6.209118|   -4.398182|   -4.458602|   -6.246145|
|        1286|   -6.211424|   -4.395723|   -4.455393|   -6.253585|
|        1287|   -6.213739|   -4.393331|   -4.452256|   -6.261384|
|        1288|   -6.216138|   -4.390940|   -4.449030|   -6.269504|
|        1289|   -6.218419|   -4.388523|   -4.445994|   -6.277855|
|        1290|   -6.220778|   -4.386110|   -4.443302|   -6.286360|
|        1291|   -6.223268|   -4.383707|   -4.440958|   -6.294954|
|        1292|   -6.225824|   -4.381322|   -4.438940|   -6.303537|
|        1293|   -6.228386|   -4.378945|   -4.437255|   -6.312016|
|        1294|   -6.230952|   -4.376558|   -4.435819|   -6.320212|
|        1295|   -6.233440|   -4.374129|   -4.434673|   -6.327868|
|        1296|   -6.235869|   -4.371640|   -4.433859|   -6.334697|
|        1297|   -6.238290|   -4.369083|   -4.433345|   -6.340428|
|        1298|   -6.240709|   -4.366435|   -4.433050|   -6.344804|
|        1299|   -6.243208|   -4.363656|   -4.432745|   -6.347617|
|        1300|   -6.245689|   -4.360684|   -4.432384|   -6.348881|
|        1301|   -6.248209|   -4.357487|   -4.431903|   -6.348121|
|        1302|   -6.250754|   -4.354080|   -4.431342|   -6.345071|
|        1303|   -6.253363|   -4.350429|   -4.430662|   -6.339539|
|        1304|   -6.255956|   -4.346579|   -4.430044|   -6.331705|
|        1305|   -6.258527|   -4.342650|   -4.429816|   -6.321765|
|        1306|   -6.261066|   -4.338793|   -4.430381|   -6.310085|
|        1307|   -6.263577|   -4.335220|   -4.431787|   -6.297270|
|        1308|   -6.265838|   -4.332282|   -4.433523|   -6.284419|
|        1309|   -6.267656|   -4.330179|   -4.435200|   -6.272918|
|        1310|   -6.269644|   -4.328886|   -4.436782|   -6.263658|
|        1311|   -6.272189|   -4.328080|   -4.438302|   -6.257107|
|        1312|   -6.275283|   -4.327212|   -4.440336|   -6.253658|
|        1313|   -6.279035|   -4.325911|   -4.443956|   -6.253469|
|        1314|   -6.283454|   -4.324396|   -4.449550|   -6.256140|
|        1315|   -6.288430|   -4.323250|   -4.455679|   -6.260898|
|        1316|   -6.294117|   -4.322820|   -4.461517|   -6.266742|
|        1317|   -6.300316|   -4.323179|   -4.466875|   -6.272408|
|        1318|   -6.306697|   -4.323755|   -4.472094|   -6.276951|
|        1319|   -6.312932|   -4.324050|   -4.477240|   -6.279854|
|        1320|   -6.318549|   -4.323977|   -4.482196|   -6.280462|
|        1321|   -6.323529|   -4.323561|   -4.486262|   -6.278410|
|        1322|   -6.327605|   -4.322767|   -4.488996|   -6.274080|
|        1323|   -6.330217|   -4.321474|   -4.490371|   -6.268674|
|        1324|   -6.331211|   -4.319718|   -4.490202|   -6.263665|
|        1325|   -6.330920|   -4.317698|   -4.488083|   -6.260106|
|        1326|   -6.329778|   -4.315700|   -4.484065|   -6.258197|
|        1327|   -6.328043|   -4.313835|   -4.478808|   -6.257410|
|        1328|   -6.325759|   -4.311929|   -4.473181|   -6.256429|
|        1329|   -6.323166|   -4.310282|   -4.468273|   -6.254846|
|        1330|   -6.321226|   -4.309156|   -4.464696|   -6.252915|
|        1331|   -6.321215|   -4.308949|   -4.462534|   -6.251224|
|        1332|   -6.323308|   -4.309597|   -4.461645|   -6.250508|
|        1333|   -6.327315|   -4.310895|   -4.462253|   -6.251122|
|        1334|   -6.333198|   -4.312527|   -4.464864|   -6.252838|
|        1335|   -6.340785|   -4.314149|   -4.469626|   -6.255026|
|        1336|   -6.349750|   -4.315481|   -4.476186|   -6.257150|
|        1337|   -6.359599|   -4.316424|   -4.483848|   -6.258889|
|        1338|   -6.369723|   -4.317008|   -4.491624|   -6.260045|
|        1339|   -6.379522|   -4.317283|   -4.498620|   -6.260558|
|        1340|   -6.388462|   -4.317289|   -4.504347|   -6.260460|
|        1341|   -6.396193|   -4.317073|   -4.508674|   -6.259846|
|        1342|   -6.402706|   -4.316691|   -4.511749|   -6.258810|
|        1343|   -6.408246|   -4.316182|   -4.513580|   -6.257475|
|        1344|   -6.413355|   -4.315571|   -4.514616|   -6.255933|
|        1345|   -6.418126|   -4.314880|   -4.515310|   -6.254239|
|        1346|   -6.422425|   -4.314092|   -4.515650|   -6.252427|
|        1347|   -6.426216|   -4.313161|   -4.515672|   -6.250542|
|        1348|   -6.429549|   -4.312053|   -4.515355|   -6.248653|
|        1349|   -6.432451|   -4.310736|   -4.514650|   -6.246835|
|        1350|   -6.435013|   -4.309219|   -4.513490|   -6.245143|
|        1351|   -6.437504|   -4.307516|   -4.511790|   -6.243629|
|        1352|   -6.440364|   -4.305690|   -4.509584|   -6.242347|
|        1353|   -6.444225|   -4.303832|   -4.506921|   -6.241262|
|        1354|   -6.449474|   -4.302069|   -4.503891|   -6.240326|
|        1355|   -6.456327|   -4.300508|   -4.500647|   -6.239464|
|        1356|   -6.464534|   -4.299157|   -4.497448|   -6.238596|
|        1357|   -6.473306|   -4.297939|   -4.494648|   -6.237655|
|        1358|   -6.481645|   -4.296758|   -4.492526|   -6.236540|
|        1359|   -6.488479|   -4.295608|   -4.491224|   -6.235164|
|        1360|   -6.493060|   -4.294522|   -4.490680|   -6.233436|
|        1361|   -6.494930|   -4.293508|   -4.490636|   -6.231260|
|        1362|   -6.494055|   -4.292500|   -4.490725|   -6.228539|
|        1363|   -6.490933|   -4.291376|   -4.490727|   -6.225360|
|        1364|   -6.487179|   -4.290064|   -4.490538|   -6.222015|
|        1365|   -6.485836|   -4.288557|   -4.490159|   -6.218945|
|        1366|   -6.489429|   -4.287105|   -4.489484|   -6.216572|
|        1367|   -6.499887|   -4.286202|   -4.488499|   -6.215105|
|        1368|   -6.516408|   -4.286295|   -4.487175|   -6.214307|
|        1369|   -6.534405|   -4.287385|   -4.485904|   -6.214208|
|        1370|   -6.550285|   -4.288911|   -4.485309|   -6.214855|
|        1371|   -6.564359|   -4.290297|   -4.485503|   -6.215600|
|        1372|   -6.577163|   -4.291161|   -4.486419|   -6.216016|
|        1373|   -6.590440|   -4.291408|   -4.487771|   -6.215855|
|        1374|   -6.604065|   -4.291213|   -4.489242|   -6.215294|
|        1375|   -6.617792|   -4.290837|   -4.490597|   -6.214552|
|        1376|   -6.631281|   -4.290487|   -4.491770|   -6.213764|
|        1377|   -6.644286|   -4.290243|   -4.492818|   -6.212986|
|        1378|   -6.656426|   -4.290148|   -4.493837|   -6.212254|
|        1379|   -6.667158|   -4.290204|   -4.494910|   -6.211584|
|        1380|   -6.676111|   -4.290389|   -4.496073|   -6.210985|
|        1381|   -6.683016|   -4.290697|   -4.497314|   -6.210451|
|        1382|   -6.687886|   -4.291123|   -4.498617|   -6.209982|
|        1383|   -6.690787|   -4.291671|   -4.499951|   -6.209562|
|        1384|   -6.692068|   -4.292340|   -4.501277|   -6.209183|
|        1385|   -6.691995|   -4.293129|   -4.502575|   -6.208835|
|        1386|   -6.690859|   -4.294041|   -4.503820|   -6.208505|
|        1387|   -6.688903|   -4.295071|   -4.505065|   -6.208192|
|        1388|   -6.686314|   -4.296221|   -4.506412|   -6.207881|
|        1389|   -6.682977|   -4.297491|   -4.507840|   -6.207559|
|        1390|   -6.678681|   -4.298875|   -4.509335|   -6.207209|
|        1391|   -6.673173|   -4.300360|   -4.510903|   -6.206815|
|        1392|   -6.666307|   -4.301928|   -4.512566|   -6.206361|
|        1393|   -6.658153|   -4.303570|   -4.514347|   -6.205837|
|        1394|   -6.648912|   -4.305272|   -4.516271|   -6.205243|
|        1395|   -6.638861|   -4.307030|   -4.518322|   -6.204587|
|        1396|   -6.628326|   -4.308843|   -4.520473|   -6.203883|
|        1397|   -6.617613|   -4.310702|   -4.522677|   -6.203152|
|        1398|   -6.606991|   -4.312593|   -4.524895|   -6.202418|
|        1399|   -6.596662|   -4.314504|   -4.527065|   -6.201703|
|        1400|   -6.586767|   -4.316425|   -4.529136|   -6.201029|
|        1401|   -6.577357|   -4.318346|   -4.531054|   -6.200412|
|        1402|   -6.568470|   -4.320267|   -4.532806|   -6.199859|
|        1403|   -6.560075|   -4.322181|   -4.534375|   -6.199368|
|        1404|   -6.552138|   -4.324078|   -4.535747|   -6.198929|
|        1405|   -6.544609|   -4.325955|   -4.536905|   -6.198523|
|        1406|   -6.537430|   -4.327814|   -4.537839|   -6.198128|
|        1407|   -6.530552|   -4.329655|   -4.538535|   -6.197726|
|        1408|   -6.523935|   -4.331489|   -4.538970|   -6.197299|
|        1409|   -6.517550|   -4.333337|   -4.539137|   -6.196836|
|        1410|   -6.511331|   -4.335207|   -4.539045|   -6.196326|
|        1411|   -6.505194|   -4.337102|   -4.538696|   -6.195764|
|        1412|   -6.499021|   -4.339027|   -4.538096|   -6.195155|
|        1413|   -6.492738|   -4.340982|   -4.537292|   -6.194504|
|        1414|   -6.486310|   -4.342967|   -4.536363|   -6.193825|
|        1415|   -6.479716|   -4.344981|   -4.535387|   -6.193130|
|        1416|   -6.472986|   -4.347024|   -4.534426|   -6.192423|
|        1417|   -6.466191|   -4.349094|   -4.533532|   -6.191704|
|        1418|   -6.459428|   -4.351193|   -4.532723|   -6.190983|
|        1419|   -6.452799|   -4.353326|   -4.531957|   -6.190269|
|        1420|   -6.446391|   -4.355496|   -4.531148|   -6.189563|
|        1421|   -6.440294|   -4.357699|   -4.530210|   -6.188883|
|        1422|   -6.434626|   -4.359948|   -4.529140|   -6.188244|
|        1423|   -6.429432|   -4.362258|   -4.527954|   -6.187629|
|        1424|   -6.424694|   -4.364638|   -4.526619|   -6.187024|
|        1425|   -6.420342|   -4.367086|   -4.525111|   -6.186424|
|        1426|   -6.416297|   -4.369591|   -4.523394|   -6.185828|
|        1427|   -6.412462|   -4.372135|   -4.521433|   -6.185233|
|        1428|   -6.408773|   -4.374694|   -4.519269|   -6.184637|
|        1429|   -6.405193|   -4.377246|   -4.516966|   -6.184032|
|        1430|   -6.401714|   -4.379777|   -4.514574|   -6.183413|
|        1431|   -6.398348|   -4.382296|   -4.512117|   -6.182774|
|        1432|   -6.395122|   -4.384824|   -4.509616|   -6.182111|
|        1433|   -6.392068|   -4.387390|   -4.507088|   -6.181426|
|        1434|   -6.389209|   -4.390028|   -4.504553|   -6.180722|
|        1435|   -6.386543|   -4.392767|   -4.502015|   -6.180022|
|        1436|   -6.384048|   -4.395621|   -4.499465|   -6.179327|
|        1437|   -6.381685|   -4.398592|   -4.496895|   -6.178643|
|        1438|   -6.379407|   -4.401675|   -4.494291|   -6.177983|
|        1439|   -6.377167|   -4.404865|   -4.491642|   -6.177361|
|        1440|   -6.374925|   -4.408144|   -4.488946|   -6.176793|
