scsub> Executing:  'cd /home/hem1dev/Codes/SU2_Github_Mark_Test/SU2/Venturi'


WARNING: CONV_CRITERIA is deprecated. SU2 will choose the criteria automatically based on the CONV_FIELD.
That is, RESIDUAL for any RMS_* BGS_* value, and CAUCHY for coefficients such as DRAG etc.


-------------------------------------------------------------------------
|    ___ _   _ ___                                                      |
|   / __| | | |_  )   Release 7.1.1 "Blackbird"                         |
|   \__ \ |_| |/ /                                                      |
|   |___/\___//___|   Suite (Computational Fluid Dynamics Code)         |
|                                                                       |
-------------------------------------------------------------------------
| SU2 Project Website: https://su2code.github.io                        |
|                                                                       |
| The SU2 Project is maintained by the SU2 Foundation                   |
| (http://su2foundation.org)                                            |
-------------------------------------------------------------------------
| Copyright 2012-2021, SU2 Contributors                                 |
|                                                                       |
| SU2 is free software; you can redistribute it and/or                  |
| modify it under the terms of the GNU Lesser General Public            |
| License as published by the Free Software Foundation; either          |
| version 2.1 of the License, or (at your option) any later version.    |
|                                                                       |
| SU2 is distributed in the hope that it will be useful,                |
| but WITHOUT ANY WARRANTY; without even the implied warranty of        |
| MERCHANTABILITY or FITNESS FOR A PARTICULAR PURPOSE. See the GNU      |
| Lesser General Public License for more details.                       |
|                                                                       |
| You should have received a copy of the GNU Lesser General Public      |
| License along with SU2. If not, see <http://www.gnu.org/licenses/>.   |
-------------------------------------------------------------------------


WARNING: CONV_CRITERIA is deprecated. SU2 will choose the criteria automatically based on the CONV_FIELD.
That is, RESIDUAL for any RMS_* BGS_* value, and CAUCHY for coefficients such as DRAG etc.


Parsing config file for zone 0


WARNING: CONV_CRITERIA is deprecated. SU2 will choose the criteria automatically based on the CONV_FIELD.
That is, RESIDUAL for any RMS_* BGS_* value, and CAUCHY for coefficients such as DRAG etc.


----------------- Physical Case Definition ( Zone 0 ) -------------------
Incompressible Laminar Navier-Stokes' equations.
No restart solution, use the values at infinity (freestream).
Dimensional simulation.
The reference area is 1 m^2.
The semi-span will be computed using the max y(3D) value.
The reference length is 1 m.
Input mesh file name: turbulentpipe.su2

--------------- Space Numerical Integration ( Zone 0 ) ------------------
Flux difference splitting (FDS) upwind scheme for the flow inviscid terms.
Second order integration in space, with slope limiter.
No slope-limiting method. 
Average of gradients with correction (viscous flow terms).
Gradient for upwind reconstruction: inverse-distance weighted Least-Squares.
Gradient for viscous and source terms: inverse-distance weighted Least-Squares.

--------------- Time Numerical Integration  ( Zone 0 ) ------------------
Local time stepping (steady state simulation).
Euler implicit method for the flow equations.
FGMRES is used for solving the linear system.
Using a ILU(0) preconditioning.
Convergence criteria of the linear solver: 1e-08.
Max number of linear iterations: 50.
No CFL adaptation.
Courant-Friedrichs-Lewy number:      100

------------------ Convergence Criteria  ( Zone 0 ) ---------------------
Maximum number of solver subiterations: 500.
Begin convergence monitoring at iteration 10.
Residual minimum value: 1e-10.
Cauchy series min. value: 1e-06.
Number of Cauchy elements: 100.
Begin windowed time average at iteration 0.

-------------------- Output Information ( Zone 0 ) ----------------------
Writing solution files every 50 iterations.
Writing the convergence history file every 1 inner iterations.
Writing the screen convergence history every 1 inner iterations.
The tabular file format is CSV (.csv).
Convergence history file name: history_turbulentpipe.
Forces breakdown file name: forces_breakdown.dat.
Surface file name: surface_flow_turbulentpipe.
Volume file name: flow_turbulentpipe.
Restart file name: restart_turbulentpipe.dat.

------------- Config File Boundary Information ( Zone 0 ) ---------------
+-----------------------------------------------------------------------+
|                        Marker Type|                        Marker Name|
+-----------------------------------------------------------------------+
|                     Symmetry plane|                               axis|
+-----------------------------------------------------------------------+
|                     Inlet boundary|                      inlet_methane|
|                                   |                          inlet_air|
+-----------------------------------------------------------------------+
|                    Outlet boundary|                             outlet|
+-----------------------------------------------------------------------+
|                     Heat flux wall|                               wall|
+-----------------------------------------------------------------------+

-------------------- Output Preprocessing ( Zone 0 ) --------------------
  Info: Ignoring the following screen output fields:
  RMS_PASSIVE_SCALAR
Screen output fields: INNER_ITER, RMS_PRESSURE, RMS_VELOCITY-X, RMS_VELOCITY-Y
History output group(s): RMS_RES, AERO_COEFF, FLOW_COEFF
Ignoring Convergence Field(s): RMS_DENSITY RMS_TKE 
Convergence field(s): RMS_PRESSURE, RMS_VELOCITY-X, RMS_VELOCITY-Y
Warning: No (valid) fields chosen for time convergence monitoring. Time convergence monitoring inactive.
  Info: Ignoring the following volume output fields/groups:
  SOURCE, LOOKUP
Volume output fields: DENSITY, SOLUTION, PRIMITIVE, RESIDUAL, COORDINATES

------------------- Geometry Preprocessing ( Zone 0 ) -------------------
Two dimensional problem.
380 grid points before partitioning.
342 volume elements before partitioning.
5 surface markers.
19 boundary elements in index 0 (Marker = wall).
18 boundary elements in index 1 (Marker = outlet).
9 boundary elements in index 2 (Marker = inlet_air).
9 boundary elements in index 3 (Marker = inlet_methane).
19 boundary elements in index 4 (Marker = axis).
Executing the partitioning functions.
Building the graph adjacency structure.
Calling ParMETIS... graph partitioning complete (480 edge cuts).
Distributing ParMETIS coloring.
Rebalancing vertices.
Rebalancing volume element connectivity.
Rebalancing markers and surface elements.
1802 vertices including ghost points. 
914 interior elements including halo cells. 
914 quadrilaterals.
Establishing MPI communication patterns.
Setting point connectivity.
Renumbering points (Reverse Cuthill McKee Ordering).
Recomputing point connectivity.
Setting element connectivity.
Checking the numerical grid orientation.
There has been a re-orientation of 914 QUADRILATERAL volume elements.
There has been a re-orientation of 121 LINE surface elements.
Identifying edges and vertices.
Setting the control volume structure.
Area of the computational grid: 0.267251.
Searching for the closest normal neighbors to the surfaces.
Storing a mapping from global to local point index.
Compute the surface curvature.
Max K: 37.7901. Mean K: 3.82684. Standard deviation K: 11.4005.
Checking for periodicity.
Computing mesh quality statistics for the dual control volumes.
+--------------------------------------------------------------+
|           Mesh Quality Metric|        Minimum|        Maximum|
+--------------------------------------------------------------+
|    Orthogonality Angle (deg.)|             90|             90|
|     CV Face Area Aspect Ratio|        4.73684|        18.9474|
|           CV Sub-Volume Ratio|              1|              1|
+--------------------------------------------------------------+
Finding max control volume width.
Communicating number of neighbors.
Wetted area = 0 m.
Area projection in the x-plane = 0 m, y-plane = 0 m.
Max. coordinate in the x-direction = -1e+10 m, y-direction = -1e+10 m.
Min. coordinate in the x-direction = 1e+10 m, y-direction = 1e+10 m.
Checking if Euler & Symmetry markers are straight/plane:
Boundary marker axis is a single straight.
Computing wall distances.

-------------------- Solver Preprocessing ( Zone 0 ) --------------------
Incompressible flow: rho_ref, vel_ref, temp_ref, p_ref
are set to 1.0 in order to perform a dimensional calculation.
Force coefficients computed using initial values.
The reference area for force coeffs. is 1 m^2.
The reference length for force coeffs. is 1 m.
The pressure is decomposed into thermodynamic and dynamic components.
The initial value of the dynamic pressure is 0.
Mach number: 0, computed using fluid speed of sound.
For external flows, the initial state is imposed at the far-field.
Angle of attack (deg): 0, computed using the initial velocity.
Side slip angle (deg): 0, computed using the initial velocity.
Reynolds number per meter: 107335, computed using initial values.
Reynolds number is a byproduct of inputs only (not used internally).
SI units only. The grid should be dimensional (meters).
Energy equation is active and coupled for variable density.

-- Models:
+------------------------------------------------------------------------------+
|          Viscosity Model|        Conductivity Model|              Fluid Model|
+------------------------------------------------------------------------------+
|       CONSTANT_VISCOSITY|          CONSTANT_PRANDTL|            INC_IDEAL_GAS|
+------------------------------------------------------------------------------+
-- Fluid properties:
+------------------------------------------------------------------------------+
|                  Name|    Dim. value|    Ref. value|      Unit|Non-dim. value|
+------------------------------------------------------------------------------+
|             Viscosity|     1.118e-05|             1|   N.s/m^2|     1.118e-05|
+------------------------------------------------------------------------------+
|        Prandtl (Lam.)|             -|             -|         -|          0.72|
|       Prandtl (Turb.)|             -|             -|         -|           0.9|
+------------------------------------------------------------------------------+
|       Spec. Heat (Cp)|        1004.7|             1|  N.m/kg.K|        1004.7|
|      Molecular weight|        16.043|             1|     g/mol|        16.043|
|          Gas Constant|       296.945|             1|  N.m/kg.K|       296.945|
|       Therm. Pressure|        106900|             1|        Pa|        106900|
+------------------------------------------------------------------------------+
-- Initial and free-stream conditions:
+------------------------------------------------------------------------------+
|                  Name|    Dim. value|    Ref. value|      Unit|Non-dim. value|
+------------------------------------------------------------------------------+
|      Dynamic Pressure|             0|             1|        Pa|             0|
|        Total Pressure|           0.6|             1|        Pa|           0.6|
|               Density|           1.2|             1|    kg/m^3|           1.2|
|           Temperature|           300|             1|         K|           300|
|            Velocity-X|             1|             1|       m/s|             1|
|            Velocity-Y|             0|             1|       m/s|             0|
|    Velocity Magnitude|             1|             1|       m/s|             1|
+------------------------------------------------------------------------------+
|             Viscosity|     1.118e-05|             1|   N.s/m^2|     1.118e-05|
|          Conductivity|             -|             1|   W/m^2.K|             -|
+------------------------------------------------------------------------------+
|           Mach Number|             -|             -|         -|             0|
|       Reynolds Number|             -|             -|         -|        107335|
+------------------------------------------------------------------------------+
Initialize Jacobian structure (Navier-Stokes). MG level: 0.

------------------- Numerics Preprocessing ( Zone 0 ) -------------------

----------------- Integration Preprocessing ( Zone 0 ) ------------------

------------------- Iteration Preprocessing ( Zone 0 ) ------------------
Euler/Navier-Stokes/RANS fluid iteration.

------------------------------ Begin Solver -----------------------------

Simulation Run using the Single-zone Driver
+---------------------------------------------------+
|  Inner_Iter|      rms[P]|      rms[U]|      rms[V]|
+---------------------------------------------------+
|           0|   -2.180242|   -1.361198|  -32.000000|
|           1|   -2.150320|   -1.182497|   -0.920589|
|           2|   -2.445591|   -1.548820|   -1.350843|
|           3|   -2.461935|   -1.616746|   -1.361364|
|           4|   -2.498248|   -1.659614|   -1.375041|
|           5|   -2.595640|   -1.702006|   -1.483977|
|           6|   -2.771409|   -1.761965|   -1.698997|
|           7|   -3.082128|   -1.871401|   -2.262494|
|           8|   -3.010738|   -1.974783|   -1.990085|
|           9|   -2.798204|   -1.962619|   -1.659154|
|          10|   -2.722934|   -1.950162|   -1.540438|
|          11|   -2.710286|   -1.964884|   -1.507011|
|          12|   -2.719590|   -1.983152|   -1.506252|
|          13|   -2.726242|   -1.986751|   -1.506518|
|          14|   -2.724292|   -1.972040|   -1.502679|
|          15|   -2.719514|   -1.944056|   -1.501047|
|          16|   -2.718537|   -1.910964|   -1.508354|
|          17|   -2.727295|   -1.882242|   -1.529285|
|          18|   -2.752347|   -1.865259|   -1.565195|
|          19|   -2.800614|   -1.866677|   -1.626946|
|          20|   -2.877636|   -1.889933|   -1.721169|
|          21|   -2.986272|   -1.937228|   -1.850576|
|          22|   -3.117001|   -2.007291|   -2.001770|
|          23|   -3.230156|   -2.090272|   -2.131956|
|          24|   -3.291427|   -2.165766|   -2.225082|
|          25|   -3.321013|   -2.215078|   -2.295471|
|          26|   -3.282662|   -2.239323|   -2.246645|
|          27|   -3.162399|   -2.258007|   -2.089128|
|          28|   -3.051826|   -2.279904|   -1.959830|
|          29|   -2.988700|   -2.303124|   -1.889640|
|          30|   -2.966910|   -2.322300|   -1.866914|
|          31|   -2.970180|   -2.324077|   -1.873763|
|          32|   -2.982342|   -2.298897|   -1.893223|
|          33|   -2.995457|   -2.261943|   -1.915287|
|          34|   -3.012321|   -2.236537|   -1.939011|
|          35|   -3.040626|   -2.233274|   -1.969787|
|          36|   -3.087535|   -2.250785|   -2.015886|
|          37|   -3.158056|   -2.282956|   -2.085212|
|          38|   -3.255857|   -2.325076|   -2.184171|
|          39|   -3.387073|   -2.376910|   -2.321890|
|          40|   -3.567834|   -2.441077|   -2.522932|
|          41|   -3.830774|   -2.517555|   -2.873901|
|          42|   -4.034349|   -2.595535|   -3.254858|
|          43|   -3.805979|   -2.654059|   -2.736871|
|          44|   -3.616702|   -2.678049|   -2.508911|
|          45|   -3.498840|   -2.673451|   -2.377645|
|          46|   -3.424150|   -2.655937|   -2.296097|
|          47|   -3.379131|   -2.635874|   -2.247974|
|          48|   -3.356257|   -2.617437|   -2.224791|
|          49|   -3.350143|   -2.602001|   -2.220550|
|          50|   -3.356785|   -2.590396|   -2.230442|
+-----------------------------------------------------------------------+
|        File Writing Summary       |              Filename             |
+-----------------------------------------------------------------------+
|SU2 restart                        |restart_turbulentpipe.dat          |
|                                   |                       (2.822 MB/s)|
|Paraview                           |flow_turbulentpipe_00000050.vtu    |
|                                   |                   (0.0577999 MB/s)|
|Paraview surface                   |surface_flow_turbulentpipe.vtu     |
|                                   |                     (2.63445 MB/s)|
+-----------------------------------------------------------------------+
+---------------------------------------------------+
|  Inner_Iter|      rms[P]|      rms[U]|      rms[V]|
+---------------------------------------------------+
|          51|   -3.373979|   -2.583899|   -2.251518|
|          52|   -3.401673|   -2.584350|   -2.284424|
|          53|   -3.441833|   -2.593539|   -2.331018|
|          54|   -3.497899|   -2.613454|   -2.394825|
|          55|   -3.574701|   -2.646225|   -2.480960|
|          56|   -3.679467|   -2.693714|   -2.597423|
|          57|   -3.825073|   -2.756204|   -2.757699|
|          58|   -4.036183|   -2.830803|   -3.000188|
|          59|   -4.332610|   -2.908476|   -3.442508|
|          60|   -4.305515|   -2.973492|   -3.294240|
|          61|   -4.056625|   -3.010371|   -2.973011|
|          62|   -3.898160|   -3.015591|   -2.804454|
|          63|   -3.798800|   -2.999622|   -2.702809|
|          64|   -3.735977|   -2.975716|   -2.639623|
|          65|   -3.698414|   -2.952733|   -2.602413|
|          66|   -3.679943|   -2.935059|   -2.584608|
|          67|   -3.677010|   -2.924346|   -2.582511|
|          68|   -3.687685|   -2.920922|   -2.594203|
|          69|   -3.711203|   -2.924746|   -2.619020|
|          70|   -3.747754|   -2.936045|   -2.657283|
|          71|   -3.798517|   -2.955616|   -2.710300|
|          72|   -3.865957|   -2.984745|   -2.780734|
|          73|   -3.954485|   -3.024798|   -2.873482|
|          74|   -4.071823|   -3.076657|   -2.997718|
|          75|   -4.231730|   -3.139988|   -3.172097|
|          76|   -4.453300|   -3.211952|   -3.435831|
|          77|   -4.645487|   -3.284897|   -3.688278|
|          78|   -4.499291|   -3.343936|   -3.433441|
|          79|   -4.314542|   -3.371841|   -3.222251|
|          80|   -4.191503|   -3.364867|   -3.093870|
|          81|   -4.111371|   -3.337076|   -3.012372|
|          82|   -4.060326|   -3.304853|   -2.961061|
|          83|   -4.030759|   -3.277472|   -2.931681|
|          84|   -4.018386|   -3.258477|   -2.919794|
|          85|   -4.020759|   -3.248688|   -2.922932|
|          86|   -4.036586|   -3.248034|   -2.939826|
|          87|   -4.065470|   -3.256364|   -2.970126|
|          88|   -4.107881|   -3.273737|   -3.014386|
|          89|   -4.165326|   -3.300471|   -3.074273|
|          90|   -4.240729|   -3.337064|   -3.153064|
|          91|   -4.339255|   -3.384030|   -3.256747|
|          92|   -4.469982|   -3.441483|   -3.396640|
|          93|   -4.648265|   -3.508368|   -3.595613|
|          94|   -4.877954|   -3.580712|   -3.882119|
|          95|   -4.945143|   -3.648846|   -3.927491|
|          96|   -4.757836|   -3.696729|   -3.674693|
|          97|   -4.601242|   -3.710932|   -3.505953|
|          98|   -4.497140|   -3.694959|   -3.399583|
|          99|   -4.428940|   -3.664733|   -3.331203|
|         100|   -4.386192|   -3.633895|   -3.288850|
+-----------------------------------------------------------------------+
|        File Writing Summary       |              Filename             |
+-----------------------------------------------------------------------+
|SU2 restart                        |restart_turbulentpipe.dat          |
|                                   |                     (3.72837 MB/s)|
|Paraview                           |flow_turbulentpipe_00000100.vtu    |
|                                   |                   (0.0558571 MB/s)|
|Paraview surface                   |surface_flow_turbulentpipe.vtu     |
|                                   |                     (3.41241 MB/s)|
+-----------------------------------------------------------------------+
+---------------------------------------------------+
|  Inner_Iter|      rms[P]|      rms[U]|      rms[V]|
+---------------------------------------------------+
|         101|   -4.363011|   -3.609345|   -3.266285|
|         102|   -4.356033|   -3.593603|   -3.260070|
|         103|   -4.363378|   -3.587278|   -3.268335|
|         104|   -4.384182|   -3.590354|   -3.290258|
|         105|   -4.418414|   -3.602741|   -3.325887|
|         106|   -4.466910|   -3.624475|   -3.376190|
|         107|   -4.531586|   -3.655759|   -3.443331|
|         108|   -4.615954|   -3.696908|   -3.531340|
|         109|   -4.726170|   -3.748165|   -3.647612|
|         110|   -4.872912|   -3.809250|   -3.806350|
|         111|   -5.070627|   -3.878325|   -4.034033|
|         112|   -5.271883|   -3.949884|   -4.288749|
|         113|   -5.203369|   -4.012055|   -4.145586|
|         114|   -5.023324|   -4.048238|   -3.932161|
|         115|   -4.892896|   -4.049702|   -3.795305|
|         116|   -4.805937|   -4.025620|   -3.707149|
|         117|   -4.749262|   -3.992550|   -3.650579|
|         118|   -4.714951|   -3.962047|   -3.616788|
|         119|   -4.698467|   -3.939403|   -3.601008|
|         120|   -4.697221|   -3.926407|   -3.600605|
|         121|   -4.709852|   -3.923393|   -3.614234|
|         122|   -4.735895|   -3.930248|   -3.641487|
|         123|   -4.775692|   -3.946820|   -3.682804|
|         124|   -4.830485|   -3.973078|   -3.739599|
|         125|   -4.902735|   -4.009129|   -3.814659|
|         126|   -4.996805|   -4.055126|   -3.913069|
|         127|   -5.120329|   -4.111033|   -4.044285|
|         128|   -5.286063|   -4.175995|   -4.226718|
|         129|   -5.501290|   -4.246966|   -4.485976|
|         130|   -5.620094|   -4.316246|   -4.616039|
|         131|   -5.464828|   -4.369703|   -4.388215|
|         132|   -5.303260|   -4.392244|   -4.209348|
|         133|   -5.192621|   -4.382161|   -4.095205|
|         134|   -5.119156|   -4.353068|   -4.021245|
|         135|   -5.072094|   -4.320107|   -3.974540|
|         136|   -5.045185|   -4.292155|   -3.948290|
|         137|   -5.034841|   -4.272928|   -3.938763|
|         138|   -5.039059|   -4.263579|   -3.943928|
|         139|   -5.056881|   -4.264266|   -3.962864|
|         140|   -5.088183|   -4.274870|   -3.995520|
|         141|   -5.133647|   -4.295283|   -4.042712|
|         142|   -5.194930|   -4.325509|   -4.106339|
|         143|   -5.275093|   -4.365647|   -4.189947|
|         144|   -5.379481|   -4.415762|   -4.299995|
|         145|   -5.517318|   -4.475540|   -4.448723|
|         146|   -5.702025|   -4.543440|   -4.659472|
|         147|   -5.912145|   -4.614930|   -4.928458|
|         148|   -5.908189|   -4.679851|   -4.870415|
|         149|   -5.732329|   -4.722565|   -4.645871|
|         150|   -5.593513|   -4.731612|   -4.497066|
+-----------------------------------------------------------------------+
|        File Writing Summary       |              Filename             |
+-----------------------------------------------------------------------+
|SU2 restart                        |restart_turbulentpipe.dat          |
|                                   |                     (3.37202 MB/s)|
|Paraview                           |flow_turbulentpipe_00000150.vtu    |
|                                   |                   (0.0572417 MB/s)|
|Paraview surface                   |surface_flow_turbulentpipe.vtu     |
|                                   |                     (3.21264 MB/s)|
+-----------------------------------------------------------------------+
+---------------------------------------------------+
|  Inner_Iter|      rms[P]|      rms[U]|      rms[V]|
+---------------------------------------------------+
|         151|   -5.499798|   -4.712168|   -4.401290|
|         152|   -5.438000|   -4.680011|   -4.339377|
|         153|   -5.399566|   -4.648100|   -4.301435|
|         154|   -5.379553|   -4.623039|   -4.282155|
|         155|   -5.375130|   -4.607360|   -4.278606|
|         156|   -5.384774|   -4.601752|   -4.289262|
|         157|   -5.407892|   -4.606246|   -4.313573|
|         158|   -5.444686|   -4.620722|   -4.351836|
|         159|   -5.496203|   -4.645109|   -4.405269|
|         160|   -5.564589|   -4.679437|   -4.476349|
|         161|   -5.653642|   -4.723786|   -4.569587|
|         162|   -5.769899|   -4.778089|   -4.693299|
|         163|   -5.924043|   -4.841636|   -4.863578|
|         164|   -6.124194|   -4.911914|   -5.107505|
|         165|   -6.274911|   -4.982404|   -5.311141|
|         166|   -6.163397|   -5.040339|   -5.112114|
|         167|   -6.001084|   -5.070005|   -4.917310|
|         168|   -5.884801|   -5.066014|   -4.792872|
|         169|   -5.806510|   -5.039506|   -4.712280|
|         170|   -5.755500|   -5.006226|   -4.660801|
|         171|   -5.725192|   -4.976451|   -4.630763|
|         172|   -5.711752|   -4.954825|   -4.617980|
|         173|   -5.712991|   -4.942959|   -4.620161|
|         174|   -5.727804|   -4.941207|   -4.636203|
|         175|   -5.755904|   -4.949521|   -4.665902|
|         176|   -5.797762|   -4.967796|   -4.709899|
|         177|   -5.854697|   -4.996008|   -4.769851|
|         178|   -5.929164|   -5.034213|   -4.848903|
|         179|   -6.025300|   -5.082459|   -4.952757|
|         180|   -6.149642|   -5.140498|   -5.092109|
|         181|   -6.309808|   -5.207090|   -5.287751|
|         182|   -6.488931|   -5.278487|   -5.557683|
|         183|   -6.538879|   -5.345924|   -5.598987|
|         184|   -6.411236|   -5.394668|   -5.365768|
|         185|   -6.279980|   -5.411221|   -5.201985|
|         186|   -6.185178|   -5.396986|   -5.097137|
|         187|   -6.120772|   -5.366553|   -5.029206|
|         188|   -6.079530|   -5.334017|   -4.986820|
|         189|   -6.056717|   -5.307216|   -4.963950|
|         190|   -6.049470|   -5.289373|   -4.957275|
|         191|   -6.056157|   -5.281497|   -4.965028|
|         192|   -6.076028|   -5.283747|   -4.986483|
|         193|   -6.109042|   -5.296049|   -5.021772|
|         194|   -6.155848|   -5.318336|   -5.071921|
|         195|   -6.217849|   -5.350631|   -5.139117|
|         196|   -6.297344|   -5.393012|   -5.227381|
|         197|   -6.397464|   -5.445458|   -5.344068|
|         198|   -6.520457|   -5.507431|   -5.503310|
|         199|   -6.656855|   -5.576885|   -5.731263|
|         200|   -6.748551|   -5.648270|   -5.983484|
+-----------------------------------------------------------------------+
|        File Writing Summary       |              Filename             |
+-----------------------------------------------------------------------+
|SU2 restart                        |restart_turbulentpipe.dat          |
|                                   |                    (0.784994 MB/s)|
|Paraview                           |flow_turbulentpipe_00000200.vtu    |
|                                   |                    (0.057626 MB/s)|
|Paraview surface                   |surface_flow_turbulentpipe.vtu     |
|                                   |                     (3.47432 MB/s)|
+-----------------------------------------------------------------------+
+---------------------------------------------------+
|  Inner_Iter|      rms[P]|      rms[U]|      rms[V]|
+---------------------------------------------------+
|         201|   -6.716730|   -5.710013|   -5.839967|
|         202|   -6.618963|   -5.746152|   -5.628082|
|         203|   -6.527722|   -5.748163|   -5.491863|
|         204|   -6.458923|   -5.724560|   -5.403924|
|         205|   -6.411259|   -5.691366|   -5.347329|
|         206|   -6.381418|   -5.660162|   -5.313346|
|         207|   -6.366768|   -5.636489|   -5.297252|
|         208|   -6.365538|   -5.622381|   -5.296447|
|         209|   -6.376649|   -5.618358|   -5.309620|
|         210|   -6.399560|   -5.624421|   -5.336394|
|         211|   -6.434150|   -5.640469|   -5.377226|
|         212|   -6.480608|   -5.666459|   -5.433533|
|         213|   -6.539246|   -5.702432|   -5.508074|
|         214|   -6.609983|   -5.748447|   -5.605852|
|         215|   -6.690938|   -5.804343|   -5.736142|
|         216|   -6.774889|   -5.869177|   -5.916999|
|         217|   -6.843676|   -5.939938|   -6.174594|
|         218|   -6.871588|   -6.009251|   -6.317536|
|         219|   -6.852020|   -6.063631|   -6.092416|
|         220|   -6.806700|   -6.088275|   -5.911431|
|         221|   -6.758464|   -6.080555|   -5.796042|
|         222|   -6.718173|   -6.053001|   -5.721320|
|         223|   -6.689103|   -6.020586|   -5.674079|
|         224|   -6.671585|   -5.992516|   -5.647406|
|         225|   -6.665076|   -5.972845|   -5.637520|
|         226|   -6.668873|   -5.962967|   -5.642373|
|         227|   -6.682305|   -5.963195|   -5.661048|
|         228|   -6.704722|   -5.973506|   -5.693507|
|         229|   -6.735363|   -5.993850|   -5.740594|
|         230|   -6.773110|   -6.024249|   -5.804247|
|         231|   -6.816058|   -6.064797|   -5.888078|
|         232|   -6.860933|   -6.115528|   -5.998674|
|         233|   -6.902587|   -6.176060|   -6.148589|
|         234|   -6.934451|   -6.244724|   -6.362048|
|         235|   -6.950952|   -6.316725|   -6.634548|
|         236|   -6.950910|   -6.381437|   -6.564582|
|         237|   -6.938326|   -6.422807|   -6.338096|
|         238|   -6.919518|   -6.429724|   -6.189721|
|         239|   -6.900049|   -6.408315|   -6.094296|
|         240|   -6.883544|   -6.374776|   -6.032546|
|         241|   -6.871935|   -6.341901|   -5.994610|
|         242|   -6.866050|   -6.316058|   -5.975200|
|         243|   -6.866064|   -6.299641|   -5.971397|
|         244|   -6.871756|   -6.293287|   -5.981673|
|         245|   -6.882630|   -6.297007|   -6.005468|
|         246|   -6.897941|   -6.310674|   -6.043049|
|         247|   -6.916679|   -6.334206|   -6.095578|
|         248|   -6.937536|   -6.367607|   -6.165421|
|         249|   -6.958912|   -6.410921|   -6.256870|
|         250|   -6.979014|   -6.464051|   -6.377779|
+-----------------------------------------------------------------------+
|        File Writing Summary       |              Filename             |
+-----------------------------------------------------------------------+
|SU2 restart                        |restart_turbulentpipe.dat          |
|                                   |                    (0.816821 MB/s)|
|Paraview                           |flow_turbulentpipe_00000250.vtu    |
|                                   |                   (0.0578128 MB/s)|
|Paraview surface                   |surface_flow_turbulentpipe.vtu     |
|                                   |                    (0.977947 MB/s)|
+-----------------------------------------------------------------------+
+---------------------------------------------------+
|  Inner_Iter|      rms[P]|      rms[U]|      rms[V]|
+---------------------------------------------------+
|         251|   -6.996100|   -6.526315|   -6.543245|
|         252|   -7.008848|   -6.595433|   -6.779738|
|         253|   -7.016699|   -6.665595|   -7.007314|
|         254|   -7.019998|   -6.725339|   -6.832260|
|         255|   -7.019812|   -6.759772|   -6.631198|
|         256|   -7.017581|   -6.761903|   -6.502495|
|         257|   -7.014738|   -6.740321|   -6.419447|
|         258|   -7.012468|   -6.710001|   -6.366485|
|         259|   -7.011604|   -6.681760|   -6.335526|
|         260|   -7.012626|   -6.660899|   -6.322188|
|         261|   -7.015699|   -6.649460|   -6.324088|
|         262|   -7.020733|   -6.648051|   -6.340088|
|         263|   -7.027424|   -6.656778|   -6.369992|
|         264|   -7.035309|   -6.675645|   -6.414493|
|         265|   -7.043815|   -6.704712|   -6.475361|
|         266|   -7.052325|   -6.744112|   -6.555961|
|         267|   -7.060252|   -6.793946|   -6.662451|
|         268|   -7.067115|   -6.853953|   -6.806551|
|         269|   -7.072608|   -6.922666|   -7.011346|
|         270|   -7.076637|   -6.995538|   -7.288939|
|         271|   -7.079322|   -7.061947|   -7.271673|
|         272|   -7.080947|   -7.104934|   -7.035280|
|         273|   -7.081901|   -7.111758|   -6.877551|
|         274|   -7.082601|   -7.088243|   -6.776302|
|         275|   -7.083434|   -7.051655|   -6.710392|
|         276|   -7.084711|   -7.015642|   -6.669091|
|         277|   -7.086648|   -6.986832|   -6.646681|
|         278|   -7.089359|   -6.967597|   -6.639987|
|         279|   -7.092859|   -6.958470|   -6.647292|
|         280|   -7.097079|   -6.959352|   -6.667857|
|         281|   -7.101883|   -6.970009|   -6.701734|
|         282|   -7.107093|   -6.990248|   -6.749781|
|         283|   -7.112506|   -7.019969|   -6.813874|
|         284|   -7.117923|   -7.059123|   -6.897430|
|         285|   -7.123169|   -7.107586|   -7.006569|
|         286|   -7.128110|   -7.164858|   -7.152679|
|         287|   -7.132665|   -7.229401|   -7.357029|
|         288|   -7.136810|   -7.297384|   -7.621221|
|         289|   -7.140570|   -7.360936|   -7.603585|
|         290|   -7.144013|   -7.408136|   -7.384007|
|         291|   -7.147229|   -7.428708|   -7.233798|
|         292|   -7.150317|   -7.423424|   -7.137607|
|         293|   -7.153374|   -7.403280|   -7.076172|
|         294|   -7.156476|   -7.380057|   -7.039369|
|         295|   -7.159678|   -7.361201|   -7.021797|
|         296|   -7.163004|   -7.350317|   -7.020536|
|         297|   -7.166457|   -7.348904|   -7.034162|
|         298|   -7.170014|   -7.357548|   -7.062334|
|         299|   -7.173639|   -7.376525|   -7.105703|
|         300|   -7.177285|   -7.406071|   -7.166103|
+-----------------------------------------------------------------------+
|        File Writing Summary       |              Filename             |
+-----------------------------------------------------------------------+
|SU2 restart                        |restart_turbulentpipe.dat          |
|                                   |                    (0.393679 MB/s)|
|Paraview                           |flow_turbulentpipe_00000300.vtu    |
|                                   |                   (0.0568803 MB/s)|
|Paraview surface                   |surface_flow_turbulentpipe.vtu     |
|                                   |                     (3.40362 MB/s)|
+-----------------------------------------------------------------------+
+---------------------------------------------------+
|  Inner_Iter|      rms[P]|      rms[U]|      rms[V]|
+---------------------------------------------------+
|         301|   -7.180906|   -7.446442|   -7.247118|
|         302|   -7.184461|   -7.497799|   -7.355435|
|         303|   -7.187920|   -7.559761|   -7.504057|
|         304|   -7.191268|   -7.630203|   -7.719011|
|         305|   -7.194505|   -7.702591|   -7.999853|
|         306|   -7.197643|   -7.762327|   -7.912588|
|         307|   -7.200708|   -7.789537|   -7.676548|
|         308|   -7.203732|   -7.776480|   -7.524090|
|         309|   -7.206748|   -7.737469|   -7.425179|
|         310|   -7.209790|   -7.691718|   -7.359808|
|         311|   -7.212886|   -7.650524|   -7.317906|
|         312|   -7.216057|   -7.618267|   -7.294045|
|         313|   -7.219314|   -7.596040|   -7.285142|
|         314|   -7.222659|   -7.583718|   -7.289448|
|         315|   -7.226088|   -7.580831|   -7.306091|
|         316|   -7.229586|   -7.586879|   -7.334862|
|         317|   -7.233138|   -7.601427|   -7.376179|
|         318|   -7.236724|   -7.624114|   -7.431157|
|         319|   -7.240325|   -7.654605|   -7.501865|
|         320|   -7.243921|   -7.692505|   -7.591840|
|         321|   -7.247500|   -7.737214|   -7.707140|
|         322|   -7.251052|   -7.787679|   -7.858302|
|         323|   -7.254570|   -7.842018|   -8.060854|
|         324|   -7.258052|   -7.897070|   -8.281950|
|         325|   -7.261502|   -7.948201|   -8.242470|
|         326|   -7.264924|   -7.990032|   -8.064536|
|         327|   -7.268322|   -8.018676|   -7.936873|
|         328|   -7.271704|   -8.034076|   -7.855204|
|         329|   -7.275074|   -8.040163|   -7.805727|
|         330|   -7.278437|   -8.042511|   -7.780388|
|         331|   -7.281795|   -8.046052|   -7.774890|
|         332|   -7.285150|   -8.054226|   -7.787202|
|         333|   -7.288500|   -8.069109|   -7.816906|
|         334|   -7.291846|   -8.091776|   -7.865086|
|         335|   -7.295184|   -8.122494|   -7.934711|
|         336|   -7.298513|   -8.160583|   -8.031756|
|         337|   -7.301832|   -8.203828|   -8.167859|
|         338|   -7.305140|   -8.247404|   -8.364554|
|         339|   -7.308438|   -8.283000|   -8.608980|
|         340|   -7.311728|   -8.300492|   -8.538176|
|         341|   -7.315011|   -8.294074|   -8.311482|
|         342|   -7.318291|   -8.267216|   -8.154157|
|         343|   -7.321571|   -8.229420|   -8.047483|
|         344|   -7.324857|   -8.189487|   -7.973257|
|         345|   -7.328149|   -8.152805|   -7.921701|
|         346|   -7.331452|   -8.121918|   -7.887311|
|         347|   -7.334768|   -8.097741|   -7.866799|
|         348|   -7.338097|   -8.080390|   -7.858110|
|         349|   -7.341440|   -8.069631|   -7.859940|
|         350|   -7.344795|   -8.065087|   -7.871488|
+-----------------------------------------------------------------------+
|        File Writing Summary       |              Filename             |
+-----------------------------------------------------------------------+
|SU2 restart                        |restart_turbulentpipe.dat          |
|                                   |                      (3.8143 MB/s)|
|Paraview                           |flow_turbulentpipe_00000350.vtu    |
|                                   |                   (0.0561764 MB/s)|
|Paraview surface                   |surface_flow_turbulentpipe.vtu     |
|                                   |                     (3.44385 MB/s)|
+-----------------------------------------------------------------------+
+---------------------------------------------------+
|  Inner_Iter|      rms[P]|      rms[U]|      rms[V]|
+---------------------------------------------------+
|         351|   -7.348163|   -8.066327|   -7.892310|
|         352|   -7.351539|   -8.072899|   -7.922253|
|         353|   -7.354923|   -8.084329|   -7.961415|
|         354|   -7.358312|   -8.100110|   -8.010138|
|         355|   -7.361703|   -8.119683|   -8.069009|
|         356|   -7.365095|   -8.142414|   -8.138868|
|         357|   -7.368485|   -8.167583|   -8.220772|
|         358|   -7.371872|   -8.194378|   -8.315796|
|         359|   -7.375255|   -8.221915|   -8.424283|
|         360|   -7.378633|   -8.249294|   -8.543459|
|         361|   -7.382007|   -8.275673|   -8.661382|
|         362|   -7.385375|   -8.300374|   -8.750406|
|         363|   -7.388739|   -8.322948|   -8.785317|
|         364|   -7.392098|   -8.343206|   -8.779793|
|         365|   -7.395452|   -8.361184|   -8.766634|
|         366|   -7.398802|   -8.377036|   -8.765076|
|         367|   -7.402147|   -8.390908|   -8.781334|
|         368|   -7.405489|   -8.402827|   -8.814515|
|         369|   -7.408828|   -8.412650|   -8.855721|
|         370|   -7.412163|   -8.420066|   -8.881791|
|         371|   -7.415495|   -8.424679|   -8.861368|
|         372|   -7.418824|   -8.426138|   -8.791238|
|         373|   -7.422152|   -8.424278|   -8.699961|
|         374|   -7.425478|   -8.419220|   -8.610837|
|         375|   -7.428802|   -8.411399|   -8.532686|
|         376|   -7.432127|   -8.401506|   -8.467131|
|         377|   -7.435452|   -8.390366|   -8.413452|
|         378|   -7.438778|   -8.378818|   -8.370405|
|         379|   -7.442105|   -8.367616|   -8.336786|
|         380|   -7.445435|   -8.357384|   -8.311560|
|         381|   -7.448767|   -8.348595|   -8.293875|
|         382|   -7.452102|   -8.341576|   -8.283032|
|         383|   -7.455439|   -8.336529|   -8.278452|
|         384|   -7.458780|   -8.333549|   -8.279650|
|         385|   -7.462123|   -8.332643|   -8.286201|
|         386|   -7.465469|   -8.333751|   -8.297723|
|         387|   -7.468816|   -8.336754|   -8.313847|
|         388|   -7.472166|   -8.341492|   -8.334201|
|         389|   -7.475517|   -8.347768|   -8.358381|
|         390|   -7.478868|   -8.355359|   -8.385929|
|         391|   -7.482220|   -8.364020|   -8.416308|
|         392|   -7.485572|   -8.373498|   -8.448875|
|         393|   -7.488924|   -8.383535|   -8.482857|
|         394|   -7.492274|   -8.393877|   -8.517347|
|         395|   -7.495624|   -8.404284|   -8.551305|
|         396|   -7.498973|   -8.414536|   -8.583600|
|         397|   -7.502320|   -8.424435|   -8.613080|
|         398|   -7.505666|   -8.433813|   -8.638659|
|         399|   -7.509010|   -8.442529|   -8.659428|
|         400|   -7.512353|   -8.450472|   -8.674742|
+-----------------------------------------------------------------------+
|        File Writing Summary       |              Filename             |
+-----------------------------------------------------------------------+
|SU2 restart                        |restart_turbulentpipe.dat          |
|                                   |                     (3.59701 MB/s)|
|Paraview                           |flow_turbulentpipe_00000400.vtu    |
|                                   |                   (0.0559381 MB/s)|
|Paraview surface                   |surface_flow_turbulentpipe.vtu     |
|                                   |                     (3.35987 MB/s)|
+-----------------------------------------------------------------------+
+---------------------------------------------------+
|  Inner_Iter|      rms[P]|      rms[U]|      rms[V]|
+---------------------------------------------------+
|         401|   -7.515694|   -8.457556|   -8.684276|
|         402|   -7.519034|   -8.463721|   -8.688053|
|         403|   -7.522372|   -8.468933|   -8.686420|
|         404|   -7.525709|   -8.473180|   -8.680012|
|         405|   -7.529045|   -8.476479|   -8.669674|
|         406|   -7.532380|   -8.478870|   -8.656378|
|         407|   -7.535714|   -8.480422|   -8.641129|
|         408|   -7.539048|   -8.481230|   -8.624887|
|         409|   -7.542380|   -8.481409|   -8.608505|
|         410|   -7.545713|   -8.481094|   -8.592701|
|         411|   -7.549046|   -8.480432|   -8.578048|
|         412|   -7.552378|   -8.479573|   -8.564981|
|         413|   -7.555711|   -8.478666|   -8.553813|
|         414|   -7.559044|   -8.477850|   -8.544750|
|         415|   -7.562377|   -8.477251|   -8.537914|
|         416|   -7.565711|   -8.476975|   -8.533358|
|         417|   -7.569046|   -8.477107|   -8.531074|
|         418|   -7.572381|   -8.477712|   -8.531011|
|         419|   -7.575717|   -8.478829|   -8.533074|
|         420|   -7.579053|   -8.480479|   -8.537135|
|         421|   -7.582390|   -8.482661|   -8.543036|
|         422|   -7.585727|   -8.485358|   -8.550590|
|         423|   -7.589065|   -8.488535|   -8.559584|
|         424|   -7.592402|   -8.492146|   -8.569782|
|         425|   -7.595740|   -8.496135|   -8.580926|
|         426|   -7.599078|   -8.500439|   -8.592745|
|         427|   -7.602416|   -8.504987|   -8.604951|
|         428|   -7.605754|   -8.509711|   -8.617256|
|         429|   -7.609091|   -8.514539|   -8.629371|
|         430|   -7.612428|   -8.519403|   -8.641020|
|         431|   -7.615765|   -8.524239|   -8.651952|
|         432|   -7.619101|   -8.528990|   -8.661943|
|         433|   -7.622436|   -8.533603|   -8.670816|
|         434|   -7.625771|   -8.538035|   -8.678437|
|         435|   -7.629106|   -8.542250|   -8.684731|
|         436|   -7.632440|   -8.546224|   -8.689673|
|         437|   -7.635773|   -8.549937|   -8.693295|
|         438|   -7.639106|   -8.553383|   -8.695678|
|         439|   -7.642438|   -8.556561|   -8.696943|
|         440|   -7.645770|   -8.559479|   -8.697249|
|         441|   -7.649101|   -8.562154|   -8.696773|
|         442|   -7.652432|   -8.564608|   -8.695708|
|         443|   -7.655762|   -8.566869|   -8.694252|
|         444|   -7.659093|   -8.568969|   -8.692595|
|         445|   -7.662423|   -8.570944|   -8.690918|
|         446|   -7.665753|   -8.572829|   -8.689384|
|         447|   -7.669082|   -8.574662|   -8.688137|
|         448|   -7.672412|   -8.576479|   -8.687295|
|         449|   -7.675742|   -8.578313|   -8.686955|
|         450|   -7.679071|   -8.580196|   -8.687189|
+-----------------------------------------------------------------------+
|        File Writing Summary       |              Filename             |
+-----------------------------------------------------------------------+
|SU2 restart                        |restart_turbulentpipe.dat          |
|                                   |                    (0.325602 MB/s)|
|Paraview                           |flow_turbulentpipe_00000450.vtu    |
|                                   |                   (0.0559425 MB/s)|
|Paraview surface                   |surface_flow_turbulentpipe.vtu     |
|                                   |                     (3.30996 MB/s)|
+-----------------------------------------------------------------------+
+---------------------------------------------------+
|  Inner_Iter|      rms[P]|      rms[U]|      rms[V]|
+---------------------------------------------------+
|         451|   -7.682401|   -8.582153|   -8.688044|
|         452|   -7.685730|   -8.584207|   -8.689547|
|         453|   -7.689060|   -8.586374|   -8.691704|
|         454|   -7.692390|   -8.588666|   -8.694499|
|         455|   -7.695719|   -8.591090|   -8.697902|
|         456|   -7.699049|   -8.593647|   -8.701866|
|         457|   -7.702378|   -8.596334|   -8.706334|
|         458|   -7.705708|   -8.599144|   -8.711234|
|         459|   -7.709037|   -8.602067|   -8.716488|
|         460|   -7.712366|   -8.605088|   -8.722015|
|         461|   -7.715696|   -8.608192|   -8.727726|
|         462|   -7.719024|   -8.611361|   -8.733534|
|         463|   -7.722353|   -8.614578|   -8.739354|
|         464|   -7.725682|   -8.617823|   -8.745106|
|         465|   -7.729010|   -8.621079|   -8.750715|
|         466|   -7.732338|   -8.624329|   -8.756116|
|         467|   -7.735666|   -8.627557|   -8.761256|
|         468|   -7.738993|   -8.630749|   -8.766090|
|         469|   -7.742320|   -8.633893|   -8.770591|
|         470|   -7.745647|   -8.636980|   -8.774740|
|         471|   -7.748974|   -8.640003|   -8.778535|
|         472|   -7.752300|   -8.642956|   -8.781983|
|         473|   -7.755626|   -8.645837|   -8.785104|
|         474|   -7.758951|   -8.648648|   -8.787928|
|         475|   -7.762277|   -8.651389|   -8.790491|
|         476|   -7.765602|   -8.654065|   -8.792837|
|         477|   -7.768926|   -8.656681|   -8.795012|
|         478|   -7.772251|   -8.659246|   -8.797066|
|         479|   -7.775575|   -8.661767|   -8.799048|
|         480|   -7.778899|   -8.664253|   -8.801006|
|         481|   -7.782223|   -8.666714|   -8.802985|
|         482|   -7.785546|   -8.669159|   -8.805024|
|         483|   -7.788870|   -8.671596|   -8.807161|
|         484|   -7.792193|   -8.674035|   -8.809424|
|         485|   -7.795516|   -8.676484|   -8.811837|
|         486|   -7.798839|   -8.678948|   -8.814416|
|         487|   -7.802161|   -8.681434|   -8.817173|
|         488|   -7.805484|   -8.683946|   -8.820111|
|         489|   -7.808806|   -8.686488|   -8.823229|
|         490|   -7.812129|   -8.689061|   -8.826519|
|         491|   -7.815451|   -8.691666|   -8.829969|
|         492|   -7.818772|   -8.694302|   -8.833564|
|         493|   -7.822094|   -8.696968|   -8.837283|
|         494|   -7.825416|   -8.699661|   -8.841104|
|         495|   -7.828737|   -8.702379|   -8.845004|
|         496|   -7.832058|   -8.705117|   -8.848958|
|         497|   -7.835379|   -8.707871|   -8.852942|
|         498|   -7.838700|   -8.710637|   -8.856931|
|         499|   -7.842020|   -8.713409|   -8.860903|

----------------------------- Solver Exit -------------------------------

Maximum number of iterations reached (ITER = 500) before convergence.
+-----------------------------------------------------------------------+
|      Convergence Field     |     Value    |   Criterion  |  Converged |
+-----------------------------------------------------------------------+
|                      rms[P]|      -7.84202|         < -10|          No|
|                      rms[U]|      -8.71341|         < -10|          No|
|                      rms[V]|       -8.8609|         < -10|          No|
+-----------------------------------------------------------------------+
-------------------------------------------------------------------------
+-----------------------------------------------------------------------+
|        File Writing Summary       |              Filename             |
+-----------------------------------------------------------------------+
|SU2 restart                        |restart_turbulentpipe.dat          |
|                                   |                     (1.04679 MB/s)|
|Paraview                           |flow_turbulentpipe_00000499.vtu    |
|                                   |                   (0.0573924 MB/s)|
|Paraview surface                   |surface_flow_turbulentpipe.vtu     |
|                                   |                     (3.17933 MB/s)|
+-----------------------------------------------------------------------+

------------------------- Solver Postprocessing -------------------------
Deleted CNumerics container.
Deleted CIntegration container.
Deleted CSolver container.
Deleted CIteration container.
Deleted CInterface container.
Deleted CGeometry container.
Deleted CFreeFormDefBox class.
Deleted CSurfaceMovement class.
Deleted CVolumetricMovement class.
Deleted CConfig container.
Deleted nInst container.
Deleted COutput class.
-------------------------------------------------------------------------


-------------------------- Performance Summary --------------------------
Simulation totals:
   Wall-clock time (hrs):   0.0222808 |            Core-hrs:     3.11931
                   Cores:         140 |          DOFs/point:           4
             Points/core:     2.71429 |   Ghost points/core:     10.1571
 Ghost/Owned Point Ratio:     3.74211 | 

Preprocessing phase:
       Preproc. Time (s):    0.131427 |   Preproc. Time (%):    0.163852

Compute phase:
        Compute Time (s):     72.8253 |    Compute Time (%):     90.7924
         Iteration count:         500 |         Avg. s/iter:    0.145651
     Core-s/iter/Mpoints:     11315.8 |           Mpoints/s:   0.0123721

Output phase:
         Output Time (s):     7.25408 |     Output Time (%):     9.04377
            Output count:           1 |       Avg. s/output:     7.25408
 Restart Aggr. BW (MB/s):     20.7016 |           MB/s/core:    0.147868
-------------------------------------------------------------------------


------------------------- Exit Success (SU2_CFD) ------------------------

