scsub> Executing:  'cd /home/hem1dev/Codes/SU2_Github_Mark_Test/SU2/Venturi'


WARNING: CONV_CRITERIA is deprecated. SU2 will choose the criteria automatically based on the CONV_FIELD.
That is, RESIDUAL for any RMS_* BGS_* value, and CAUCHY for coefficients such as DRAG etc.


-------------------------------------------------------------------------
|    ___ _   _ ___                                                      |
|   / __| | | |_  )   Release 7.1.1 "Blackbird"                         |
|   \__ \ |_| |/ /                                                      |
|   |___/\___//___|   Suite (Computational Fluid Dynamics Code)         |
|                                                                       |
-------------------------------------------------------------------------
| SU2 Project Website: https://su2code.github.io                        |
|                                                                       |
| The SU2 Project is maintained by the SU2 Foundation                   |
| (http://su2foundation.org)                                            |
-------------------------------------------------------------------------
| Copyright 2012-2021, SU2 Contributors                                 |
|                                                                       |
| SU2 is free software; you can redistribute it and/or                  |
| modify it under the terms of the GNU Lesser General Public            |
| License as published by the Free Software Foundation; either          |
| version 2.1 of the License, or (at your option) any later version.    |
|                                                                       |
| SU2 is distributed in the hope that it will be useful,                |
| but WITHOUT ANY WARRANTY; without even the implied warranty of        |
| MERCHANTABILITY or FITNESS FOR A PARTICULAR PURPOSE. See the GNU      |
| Lesser General Public License for more details.                       |
|                                                                       |
| You should have received a copy of the GNU Lesser General Public      |
| License along with SU2. If not, see <http://www.gnu.org/licenses/>.   |
-------------------------------------------------------------------------


WARNING: CONV_CRITERIA is deprecated. SU2 will choose the criteria automatically based on the CONV_FIELD.
That is, RESIDUAL for any RMS_* BGS_* value, and CAUCHY for coefficients such as DRAG etc.


Parsing config file for zone 0


WARNING: CONV_CRITERIA is deprecated. SU2 will choose the criteria automatically based on the CONV_FIELD.
That is, RESIDUAL for any RMS_* BGS_* value, and CAUCHY for coefficients such as DRAG etc.


----------------- Physical Case Definition ( Zone 0 ) -------------------
Incompressible RANS equations.
Turbulence model: Menter's SST
Hybrid RANS/LES: No Hybrid RANS/LES
No restart solution, use the values at infinity (freestream).
Dimensional simulation.
The reference area is 1 m^2.
The semi-span will be computed using the max y(3D) value.
The reference length is 1 m.
Input mesh file name: c6_cms_venturi.cgns

--------------- Space Numerical Integration ( Zone 0 ) ------------------
Flux difference splitting (FDS) upwind scheme for the flow inviscid terms.
Second order integration in space, with slope limiter.
No slope-limiting method. 
Average of gradients with correction (viscous flow terms).
Average of gradients with correction (viscous turbulence terms).
Gradient for upwind reconstruction: inverse-distance weighted Least-Squares.
Gradient for viscous and source terms: inverse-distance weighted Least-Squares.

--------------- Time Numerical Integration  ( Zone 0 ) ------------------
Local time stepping (steady state simulation).
Euler implicit method for the flow equations.
FGMRES is used for solving the linear system.
Using a ILU(0) preconditioning.
Convergence criteria of the linear solver: 1e-08.
Max number of linear iterations: 20.
No CFL adaptation.
Courant-Friedrichs-Lewy number:      100
Euler implicit time integration for the turbulence model.

------------------ Convergence Criteria  ( Zone 0 ) ---------------------
Maximum number of solver subiterations: 10000.
Begin convergence monitoring at iteration 10.
Residual minimum value: 1e-10.
Cauchy series min. value: 1e-06.
Number of Cauchy elements: 100.
Begin windowed time average at iteration 0.

-------------------- Output Information ( Zone 0 ) ----------------------
Writing solution files every 1000 iterations.
Writing the convergence history file every 1 inner iterations.
Writing the screen convergence history every 1 inner iterations.
The tabular file format is CSV (.csv).
Convergence history file name: history_test.
Forces breakdown file name: forces_breakdown.dat.
Surface file name: surface_flow_venturi_mixturedensity_30kW_fine_test.
Volume file name: flow_venturi_mixturedensity_30kW_fine_test.
Restart file name: restart_venturi_mixturedensity_30kW_fine_test.dat.

------------- Config File Boundary Information ( Zone 0 ) ---------------
+-----------------------------------------------------------------------+
|                        Marker Type|                        Marker Name|
+-----------------------------------------------------------------------+
|                     Symmetry plane|                               axis|
+-----------------------------------------------------------------------+
|                     Inlet boundary|                          gas_inlet|
|                                   |                          air_inlet|
+-----------------------------------------------------------------------+
|                    Outlet boundary|                             outlet|
+-----------------------------------------------------------------------+
|                     Heat flux wall|            wall-component1-surface|
+-----------------------------------------------------------------------+

-------------------- Output Preprocessing ( Zone 0 ) --------------------
Screen output fields: INNER_ITER, RMS_PRESSURE, RMS_VELOCITY-X, RMS_VELOCITY-Y, RMS_PASSIVE_SCALAR
History output group(s): RMS_RES, AERO_COEFF, FLOW_COEFF
Convergence field(s): RMS_PRESSURE, RMS_VELOCITY-X, RMS_VELOCITY-Y, RMS_TKE
Warning: No (valid) fields chosen for time convergence monitoring. Time convergence monitoring inactive.
  Info: Ignoring the following volume output fields/groups:
  SOURCE, LOOKUP
Volume output fields: DENSITY, SOLUTION, PRIMITIVE, RESIDUAL, COORDINATES

------------------- Geometry Preprocessing ( Zone 0 ) -------------------
Reading the CGNS file: c6_cms_venturi.cgns.
CGNS file contains 1 database(s).
Database 1, Base:  cell dimension of 2, physical dimension of 2.
1 total zone(s).
Zone 1, Zone: 292948 total vertices, 295883 total elements.
Loading CoordinateX values into linear partitions.
Loading CoordinateY values into linear partitions.
Distributing connectivity across all ranks.
Number of connectivity sections is 6.
Section gas_inlet contains 51 elements of type Mixed.
Section air_inlet contains 150 elements of type Mixed.
Section outlet contains 157 elements of type Mixed.
Section axis contains 1721 elements of type Mixed.
Section component1-surface contains 290183 elements of type Mixed.
Section wall-component1-surface contains 3621 elements of type Mixed.
Loading surface section gas_inlet from file.
Loading surface section air_inlet from file.
Loading surface section outlet from file.
Loading surface section axis from file.
Loading volume section component1-surface from file.
Loading surface section wall-component1-surface from file.
Two dimensional problem.
292948 grid points before partitioning.
290183 volume elements before partitioning.
5 surface markers.
51 boundary elements in index 0 (Marker = gas_inlet).
150 boundary elements in index 1 (Marker = air_inlet).
157 boundary elements in index 2 (Marker = outlet).
1721 boundary elements in index 3 (Marker = axis).
3621 boundary elements in index 4 (Marker = wall-component1-surface).
Executing the partitioning functions.
Building the graph adjacency structure.
Calling ParMETIS... graph partitioning complete (8746 edge cuts).
Distributing ParMETIS coloring.
Rebalancing vertices.
Rebalancing volume element connectivity.
Rebalancing markers and surface elements.
310564 vertices including ghost points. 
298925 interior elements including halo cells. 
176 triangles.
298749 quadrilaterals.
Establishing MPI communication patterns.
Setting point connectivity.
Renumbering points (Reverse Cuthill McKee Ordering).
Recomputing point connectivity.
Setting element connectivity.
Checking the numerical grid orientation.
All volume elements are correctly orientend.
All surface elements are correctly orientend.
Identifying edges and vertices.
Setting the control volume structure.
Area of the computational grid: 0.00281152.
Searching for the closest normal neighbors to the surfaces.
Storing a mapping from global to local point index.
Compute the surface curvature.
Max K: 25766.3. Mean K: 66.0693. Standard deviation K: 1007.76.
Checking for periodicity.
Computing mesh quality statistics for the dual control volumes.
+--------------------------------------------------------------+
|           Mesh Quality Metric|        Minimum|        Maximum|
+--------------------------------------------------------------+
|    Orthogonality Angle (deg.)|        45.2115|             90|
|     CV Face Area Aspect Ratio|              1|        10.3208|
|           CV Sub-Volume Ratio|              1|        9.85984|
+--------------------------------------------------------------+
Finding max control volume width.
Communicating number of neighbors.
Wetted area = 0 m.
Area projection in the x-plane = 0 m, y-plane = 0 m.
Max. coordinate in the x-direction = -1e+10 m, y-direction = -1e+10 m.
Min. coordinate in the x-direction = 1e+10 m, y-direction = 1e+10 m.
Checking if Euler & Symmetry markers are straight/plane:
Boundary marker axis is a single straight.
Computing wall distances.

-------------------- Solver Preprocessing ( Zone 0 ) --------------------
Incompressible flow: rho_ref, vel_ref, temp_ref, p_ref
are set to 1.0 in order to perform a dimensional calculation.
Force coefficients computed using initial values.
The reference area for force coeffs. is 1 m^2.
The reference length for force coeffs. is 1 m.
The pressure is decomposed into thermodynamic and dynamic components.
The initial value of the dynamic pressure is 0.
Mach number: 0, computed using fluid speed of sound.
For external flows, the initial state is imposed at the far-field.
Angle of attack (deg): 0, computed using the initial velocity.
Side slip angle (deg): 0, computed using the initial velocity.
Reynolds number per meter: 65290.8, computed using initial values.
Reynolds number is a byproduct of inputs only (not used internally).
SI units only. The grid should be dimensional (meters).
Energy equation is active and coupled for variable density.

-- Models:
+------------------------------------------------------------------------------+
|          Viscosity Model|        Conductivity Model|              Fluid Model|
+------------------------------------------------------------------------------+
|       CONSTANT_VISCOSITY|                  CONSTANT|+------------------------------------------------------------------------------+
-- Fluid properties:
+------------------------------------------------------------------------------+
|                  Name|    Dim. value|    Ref. value|      Unit|Non-dim. value|
+------------------------------------------------------------------------------+
|             Viscosity|     1.118e-05|             1|   N.s/m^2|     1.118e-05|
+------------------------------------------------------------------------------+
|       Molecular Cond.|         0.072|             1|   W/m^2.K|         0.072|
+------------------------------------------------------------------------------+
-- Initial and free-stream conditions:
+------------------------------------------------------------------------------+
|                  Name|    Dim. value|    Ref. value|      Unit|Non-dim. value|
+------------------------------------------------------------------------------+
|      Dynamic Pressure|             0|             1|        Pa|             0|
|        Total Pressure|      0.585985|             1|        Pa|      0.585985|
|               Density|       1.17197|             1|    kg/m^3|       1.17197|
|           Temperature|           300|             1|         K|           300|
|            Velocity-X|             1|             1|       m/s|             1|
|            Velocity-Y|             0|             1|       m/s|             0|
|    Velocity Magnitude|             1|             1|       m/s|             1|
+------------------------------------------------------------------------------+
|             Viscosity|     1.795e-05|             1|   N.s/m^2|     1.795e-05|
|          Conductivity|             -|             1|   W/m^2.K|             -|
|     Turb. Kin. Energy|       0.00375|             1|   m^2/s^2|       0.00375|
|     Spec. Dissipation|       24.4841|             1|       1/s|       24.4841|
+------------------------------------------------------------------------------+
|           Mach Number|             -|             -|         -|             0|
|       Reynolds Number|             -|             -|         -|       65290.8|
+------------------------------------------------------------------------------+
Initialize Jacobian structure (Navier-Stokes). MG level: 0.
Initialize Jacobian structure (passive scalar model).
Initialize Jacobian structure (SST model).

------------------- Numerics Preprocessing ( Zone 0 ) -------------------

----------------- Integration Preprocessing ( Zone 0 ) ------------------

------------------- Iteration Preprocessing ( Zone 0 ) ------------------
Euler/Navier-Stokes/RANS fluid iteration.

------------------------------ Begin Solver -----------------------------

Simulation Run using the Single-zone Driver
Initializing passive scalar (initial condition).
initialization = 1 1
+----------------------------------------------------------------+
|  Inner_Iter|      rms[P]|      rms[U]|      rms[V]|      rms[c]|
+----------------------------------------------------------------+
|           0|   -5.116953|   -4.847332|   -4.364756|   -5.710014|
|           1|   -4.986664|   -4.844342|   -4.071097|   -5.228040|
|           2|   -5.397904|   -4.533040|   -4.030494|   -5.334733|
|           3|   -5.500763|   -4.735678|   -4.081771|   -5.472915|
|           4|   -5.650114|   -4.833708|   -4.100584|   -5.524388|
|           5|   -5.621875|   -4.894698|   -4.333207|   -5.550613|
|           6|   -5.726975|   -4.862354|   -4.575805|   -5.580328|
|           7|   -5.768453|   -4.805557|   -4.712850|   -5.631456|
|           8|   -5.801242|   -4.766971|   -4.694745|   -5.694558|
|           9|   -5.808044|   -4.747321|   -4.587567|   -5.745932|
|          10|   -5.780136|   -4.735476|   -4.422066|   -5.771133|
|          11|   -5.751266|   -4.724067|   -4.317713|   -5.772927|
|          12|   -5.752906|   -4.712134|   -4.282040|   -5.760217|
|          13|   -5.782044|   -4.699251|   -4.287867|   -5.742612|
|          14|   -5.821298|   -4.683119|   -4.316240|   -5.727050|
|          15|   -5.857946|   -4.661680|   -4.352550|   -5.716536|
|          16|   -5.887514|   -4.635625|   -4.382770|   -5.710853|
|          17|   -5.909241|   -4.607781|   -4.396451|   -5.708248|
|          18|   -5.923557|   -4.580864|   -4.391668|   -5.706702|
|          19|   -5.932333|   -4.556252|   -4.374634|   -5.704714|
|          20|   -5.938654|   -4.534136|   -4.354029|   -5.701525|
|          21|   -5.945423|   -4.514124|   -4.336413|   -5.697017|
|          22|   -5.954189|   -4.495766|   -4.324708|   -5.691468|
|          23|   -5.964985|   -4.478727|   -4.318740|   -5.685320|
|          24|   -5.976931|   -4.462779|   -4.317034|   -5.678996|
|          25|   -5.989000|   -4.447738|   -4.317316|   -5.672790|
|          26|   -6.000483|   -4.433439|   -4.316924|   -5.666831|
|          27|   -6.011056|   -4.419738|   -4.315707|   -5.661116|
|          28|   -6.020711|   -4.406572|   -4.313695|   -5.655594|
|          29|   -6.029583|   -4.393889|   -4.311209|   -5.650205|
|          30|   -6.037865|   -4.381639|   -4.308746|   -5.644905|
|          31|   -6.045704|   -4.369750|   -4.306688|   -5.639678|
|          32|   -6.053190|   -4.358144|   -4.305211|   -5.634519|
|          33|   -6.060306|   -4.346749|   -4.304249|   -5.629415|
|          34|   -6.066997|   -4.335542|   -4.303491|   -5.624358|
|          35|   -6.073230|   -4.324550|   -4.302631|   -5.619371|
|          36|   -6.078980|   -4.313818|   -4.301232|   -5.614503|
|          37|   -6.084266|   -4.303365|   -4.298333|   -5.609812|
|          38|   -6.089175|   -4.293164|   -4.292906|   -5.605348|
|          39|   -6.093843|   -4.283247|   -4.287184|   -5.601132|
|          40|   -6.098200|   -4.273620|   -4.281921|   -5.597139|
|          41|   -6.102155|   -4.264257|   -4.277529|   -5.593308|
|          42|   -6.105726|   -4.255075|   -4.274293|   -5.589613|
|          43|   -6.109017|   -4.245879|   -4.271325|   -5.586073|
|          44|   -6.112145|   -4.236536|   -4.269357|   -5.582783|
|          45|   -6.114997|   -4.227034|   -4.267802|   -5.579804|
|          46|   -6.117567|   -4.217627|   -4.267652|   -5.577105|
|          47|   -6.119769|   -4.208752|   -4.268716|   -5.574614|
|          48|   -6.121632|   -4.200783|   -4.269607|   -5.572236|
|          49|   -6.123393|   -4.194029|   -4.270722|   -5.569926|
|          50|   -6.125078|   -4.188668|   -4.272435|   -5.567645|
|          51|   -6.126545|   -4.184687|   -4.274653|   -5.565430|
|          52|   -6.127865|   -4.181919|   -4.277415|   -5.563334|
|          53|   -6.129023|   -4.180113|   -4.280816|   -5.561435|
|          54|   -6.129968|   -4.179012|   -4.284845|   -5.559722|
|          55|   -6.130600|   -4.178447|   -4.289291|   -5.558081|
|          56|   -6.130829|   -4.178338|   -4.293814|   -5.556288|
|          57|   -6.130687|   -4.178629|   -4.298049|   -5.554080|
|          58|   -6.130313|   -4.179229|   -4.301626|   -5.551258|
|          59|   -6.129397|   -4.179926|   -4.304138|   -5.547749|
|          60|   -6.127450|   -4.180372|   -4.305175|   -5.543588|
|          61|   -6.124182|   -4.180107|   -4.304489|   -5.538844|
|          62|   -6.119530|   -4.178689|   -4.302433|   -5.533573|
|          63|   -6.113492|   -4.175863|   -4.299196|   -5.527835|
|          64|   -6.106195|   -4.171619|   -4.294824|   -5.521700|
|          65|   -6.097793|   -4.166205|   -4.289168|   -5.515220|
|          66|   -6.088275|   -4.160018|   -4.281872|   -5.508409|
|          67|   -6.077495|   -4.153447|   -4.272458|   -5.501228|
|          68|   -6.065260|   -4.146765|   -4.260468|   -5.493555|
|          69|   -6.051291|   -4.139936|   -4.245571|   -5.485217|
|          70|   -6.035416|   -4.132727|   -4.227756|   -5.476009|
|          71|   -6.017471|   -4.124972|   -4.207219|   -5.465861|
|          72|   -5.998366|   -4.117023|   -4.184413|   -5.454959|
|          73|   -5.977724|   -4.108862|   -4.159858|   -5.444205|
|          74|   -5.956249|   -4.100840|   -4.135313|   -5.435184|
|          75|   -5.936618|   -4.093107|   -4.113620|   -5.429496|
|          76|   -5.921834|   -4.085429|   -4.097863|   -5.428050|
|          77|   -5.913506|   -4.077574|   -4.089739|   -5.430632|
|          78|   -5.911018|   -4.069979|   -4.090559|   -5.435958|
|          79|   -5.912933|   -4.063474|   -4.098359|   -5.442467|
|          80|   -5.918544|   -4.058828|   -4.108169|   -5.449137|
|          81|   -5.925829|   -4.055832|   -4.118157|   -5.455788|
|          82|   -5.933991|   -4.053624|   -4.128161|   -5.462339|
|          83|   -5.942051|   -4.051053|   -4.138580|   -5.468410|
|          84|   -5.948087|   -4.047260|   -4.148536|   -5.473674|
|          85|   -5.950703|   -4.042487|   -4.156727|   -5.477434|
|          86|   -5.949070|   -4.035889|   -4.162827|   -5.478912|
|          87|   -5.942992|   -4.027089|   -4.166528|   -5.477472|
|          88|   -5.932635|   -4.017493|   -4.165806|   -5.472875|
|          89|   -5.919637|   -4.007175|   -4.156999|   -5.465207|
|          90|   -5.905192|   -3.996367|   -4.138335|   -5.454562|
|          91|   -5.886721|   -3.986004|   -4.111521|   -5.442170|
|          92|   -5.864696|   -3.977116|   -4.081864|   -5.429744|
|          93|   -5.840945|   -3.970236|   -4.054778|   -5.419380|
|          94|   -5.818932|   -3.965441|   -4.034089|   -5.412333|
|          95|   -5.802819|   -3.962379|   -4.021534|   -5.408739|
|          96|   -5.793538|   -3.960612|   -4.016253|   -5.408326|
|          97|   -5.789527|   -3.959540|   -4.015803|   -5.410577|
|          98|   -5.790053|   -3.958578|   -4.018213|   -5.414885|
|          99|   -5.794645|   -3.957976|   -4.022757|   -5.420770|
|         100|   -5.803022|   -3.957826|   -4.028983|   -5.427644|
|         101|   -5.814259|   -3.958254|   -4.037437|   -5.435060|
|         102|   -5.827586|   -3.959679|   -4.048152|   -5.442330|
|         103|   -5.842046|   -3.962715|   -4.060327|   -5.449153|
|         104|   -5.857923|   -3.967161|   -4.072873|   -5.455541|
|         105|   -5.873412|   -3.972585|   -4.085553|   -5.461037|
|         106|   -5.888394|   -3.978920|   -4.098246|   -5.465065|
|         107|   -5.902446|   -3.986085|   -4.109658|   -5.466842|
|         108|   -5.913818|   -3.994082|   -4.117770|   -5.465962|
|         109|   -5.922790|   -4.002304|   -4.121676|   -5.462335|
|         110|   -5.926540|   -4.010361|   -4.122539|   -5.456512|
|         111|   -5.923591|   -4.017644|   -4.121525|   -5.449240|
|         112|   -5.912694|   -4.023878|   -4.119321|   -5.442356|
|         113|   -5.903245|   -4.028551|   -4.116367|   -5.435752|
|         114|   -5.892910|   -4.031033|   -4.114116|   -5.429792|
|         115|   -5.881781|   -4.032217|   -4.112605|   -5.424791|
|         116|   -5.872275|   -4.032769|   -4.112607|   -5.420999|
|         117|   -5.864195|   -4.033240|   -4.114381|   -5.418548|
|         118|   -5.857693|   -4.034144|   -4.117627|   -5.417691|
|         119|   -5.853392|   -4.036115|   -4.122126|   -5.418521|
|         120|   -5.851218|   -4.039311|   -4.127367|   -5.421026|
|         121|   -5.851260|   -4.043708|   -4.132861|   -5.425098|
|         122|   -5.852742|   -4.049268|   -4.137659|   -5.430697|
|         123|   -5.856256|   -4.055795|   -4.140811|   -5.437522|
|         124|   -5.860999|   -4.063129|   -4.141958|   -5.445075|
|         125|   -5.865747|   -4.070985|   -4.141274|   -5.452949|
|         126|   -5.870624|   -4.078952|   -4.138826|   -5.460934|
|         127|   -5.875229|   -4.086602|   -4.135122|   -5.468930|
|         128|   -5.879601|   -4.093699|   -4.130363|   -5.476598|
|         129|   -5.883570|   -4.100026|   -4.125172|   -5.483846|
|         130|   -5.886720|   -4.105588|   -4.118899|   -5.490869|
|         131|   -5.893147|   -4.109724|   -4.112354|   -5.497018|
|         132|   -5.900790|   -4.113197|   -4.106806|   -5.502088|
|         133|   -5.908073|   -4.116345|   -4.102453|   -5.506236|
|         134|   -5.914299|   -4.119080|   -4.099360|   -5.509620|
|         135|   -5.919722|   -4.121649|   -4.097549|   -5.512399|
|         136|   -5.924353|   -4.124053|   -4.096898|   -5.514685|
|         137|   -5.928571|   -4.126286|   -4.097268|   -5.516706|
|         138|   -5.932108|   -4.128293|   -4.098457|   -5.518489|
|         139|   -5.935688|   -4.129979|   -4.100158|   -5.520144|
|         140|   -5.938949|   -4.131401|   -4.102081|   -5.521530|
|         141|   -5.942276|   -4.132730|   -4.104043|   -5.522654|
|         142|   -5.945100|   -4.133959|   -4.105787|   -5.523477|
|         143|   -5.946926|   -4.134981|   -4.107467|   -5.524103|
|         144|   -5.948217|   -4.135887|   -4.109174|   -5.524625|
|         145|   -5.949102|   -4.136618|   -4.110636|   -5.525018|
|         146|   -5.949950|   -4.137588|   -4.111601|   -5.525315|
|         147|   -5.950940|   -4.138823|   -4.112128|   -5.525529|
|         148|   -5.951939|   -4.140030|   -4.112230|   -5.525688|
|         149|   -5.953048|   -4.141393|   -4.111930|   -5.525915|
|         150|   -5.954916|   -4.142946|   -4.111288|   -5.526300|
|         151|   -5.957288|   -4.144685|   -4.110534|   -5.526836|
|         152|   -5.959938|   -4.146707|   -4.109961|   -5.527506|
|         153|   -5.963381|   -4.148967|   -4.109629|   -5.528056|
|         154|   -5.967440|   -4.151195|   -4.109151|   -5.528440|
|         155|   -5.971533|   -4.153321|   -4.108470|   -5.528556|
|         156|   -5.975378|   -4.155541|   -4.107909|   -5.528472|
|         157|   -5.978471|   -4.157791|   -4.107526|   -5.528256|
|         158|   -5.980752|   -4.159984|   -4.107370|   -5.527946|
|         159|   -5.982446|   -4.161924|   -4.107413|   -5.527509|
|         160|   -5.984140|   -4.163768|   -4.107670|   -5.526955|
|         161|   -5.985772|   -4.165722|   -4.108216|   -5.526201|
|         162|   -5.987698|   -4.167528|   -4.108926|   -5.525289|
|         163|   -5.989198|   -4.169084|   -4.109800|   -5.524241|
|         164|   -5.990022|   -4.170306|   -4.110707|   -5.523072|
|         165|   -5.991058|   -4.171266|   -4.111521|   -5.521751|
|         166|   -5.991743|   -4.171942|   -4.112172|   -5.520180|
|         167|   -5.991938|   -4.172097|   -4.112533|   -5.518357|
|         168|   -5.992078|   -4.171958|   -4.112541|   -5.516254|
|         169|   -5.991541|   -4.171228|   -4.112128|   -5.513885|
|         170|   -5.990471|   -4.169758|   -4.111086|   -5.511369|
|         171|   -5.988981|   -4.167433|   -4.109191|   -5.508781|
|         172|   -5.987249|   -4.164437|   -4.106814|   -5.506172|
|         173|   -5.985281|   -4.161006|   -4.104125|   -5.503561|
|         174|   -5.983894|   -4.157225|   -4.101340|   -5.500935|
|         175|   -5.983113|   -4.153541|   -4.098561|   -5.498268|
|         176|   -5.982675|   -4.149773|   -4.095723|   -5.495520|
|         177|   -5.982548|   -4.145556|   -4.092902|   -5.492752|
|         178|   -5.982279|   -4.140892|   -4.089932|   -5.489975|
|         179|   -5.982501|   -4.135847|   -4.086963|   -5.487239|
|         180|   -5.983016|   -4.130363|   -4.084001|   -5.484565|
|         181|   -5.984052|   -4.124602|   -4.081008|   -5.481949|
|         182|   -5.985144|   -4.118874|   -4.077925|   -5.479349|
|         183|   -5.986673|   -4.113247|   -4.074459|   -5.476735|
|         184|   -5.988335|   -4.107533|   -4.070654|   -5.474078|
|         185|   -5.990220|   -4.101843|   -4.066551|   -5.471396|
|         186|   -5.992038|   -4.096506|   -4.062200|   -5.468770|
|         187|   -5.994072|   -4.091544|   -4.057553|   -5.466268|
|         188|   -5.996050|   -4.086762|   -4.052743|   -5.463855|
|         189|   -5.998147|   -4.082242|   -4.047849|   -5.461533|
|         190|   -6.000543|   -4.078298|   -4.043029|   -5.459243|
|         191|   -6.003388|   -4.074900|   -4.038378|   -5.456967|
|         192|   -6.006323|   -4.071978|   -4.034026|   -5.454717|
|         193|   -6.009347|   -4.069428|   -4.030040|   -5.452522|
|         194|   -6.012217|   -4.067105|   -4.026422|   -5.450404|
|         195|   -6.015157|   -4.064992|   -4.023137|   -5.448396|
|         196|   -6.017828|   -4.062969|   -4.020215|   -5.446524|
|         197|   -6.020357|   -4.061075|   -4.017720|   -5.444801|
|         198|   -6.022637|   -4.059395|   -4.015746|   -5.443235|
|         199|   -6.024966|   -4.057896|   -4.014234|   -5.441811|
|         200|   -6.027074|   -4.056494|   -4.013079|   -5.440515|
|         201|   -6.029322|   -4.055211|   -4.012164|   -5.439362|
|         202|   -6.031496|   -4.054106|   -4.011384|   -5.438386|
|         203|   -6.033671|   -4.053134|   -4.010641|   -5.437615|
|         204|   -6.035687|   -4.052152|   -4.009955|   -5.437047|
|         205|   -6.037678|   -4.051165|   -4.009453|   -5.436681|
|         206|   -6.039860|   -4.050353|   -4.009218|   -5.436519|
|         207|   -6.042254|   -4.049721|   -4.009260|   -5.436535|
|         208|   -6.044635|   -4.049227|   -4.009386|   -5.436750|
|         209|   -6.047122|   -4.048915|   -4.009531|   -5.437152|
|         210|   -6.049497|   -4.048654|   -4.009649|   -5.437738|
|         211|   -6.051933|   -4.048372|   -4.009696|   -5.438503|
|         212|   -6.054329|   -4.047953|   -4.009745|   -5.439460|
|         213|   -6.056971|   -4.047435|   -4.009893|   -5.440619|
|         214|   -6.059747|   -4.046787|   -4.010259|   -5.441993|
|         215|   -6.062795|   -4.045985|   -4.010800|   -5.443578|
|         216|   -6.065852|   -4.045024|   -4.011532|   -5.445364|
|         217|   -6.069260|   -4.043962|   -4.012414|   -5.447307|
|         218|   -6.073473|   -4.042823|   -4.013439|   -5.449397|
|         219|   -6.078260|   -4.041617|   -4.014586|   -5.451633|
|         220|   -6.083607|   -4.040374|   -4.015841|   -5.454030|
|         221|   -6.089397|   -4.039066|   -4.017160|   -5.456560|
|         222|   -6.095633|   -4.037525|   -4.018511|   -5.459212|
|         223|   -6.102280|   -4.035750|   -4.020006|   -5.461979|
|         224|   -6.109267|   -4.033841|   -4.021779|   -5.464853|
|         225|   -6.116523|   -4.031912|   -4.023872|   -5.467833|
|         226|   -6.124208|   -4.029986|   -4.026285|   -5.470908|
|         227|   -6.132139|   -4.028047|   -4.029056|   -5.474073|
|         228|   -6.140053|   -4.026046|   -4.032226|   -5.477333|
|         229|   -6.147964|   -4.024018|   -4.035787|   -5.480687|
|         230|   -6.155989|   -4.021989|   -4.039692|   -5.484130|
|         231|   -6.164037|   -4.019990|   -4.043923|   -5.487663|
|         232|   -6.172143|   -4.018077|   -4.048406|   -5.491282|
|         233|   -6.180303|   -4.016189|   -4.053175|   -5.494989|
|         234|   -6.188516|   -4.014356|   -4.058189|   -5.498780|
|         235|   -6.197303|   -4.012602|   -4.063427|   -5.502657|
|         236|   -6.206208|   -4.010978|   -4.068867|   -5.506591|
|         237|   -6.215372|   -4.009513|   -4.074446|   -5.510582|
|         238|   -6.225224|   -4.008255|   -4.080139|   -5.514635|
|         239|   -6.235269|   -4.007170|   -4.085908|   -5.518727|
|         240|   -6.245304|   -4.006188|   -4.091637|   -5.522848|
|         241|   -6.255539|   -4.005303|   -4.097276|   -5.527011|
|         242|   -6.265706|   -4.004477|   -4.102817|   -5.531208|
|         243|   -6.275575|   -4.003660|   -4.108172|   -5.535420|
|         244|   -6.284852|   -4.002826|   -4.113320|   -5.539658|
|         245|   -6.293652|   -4.001997|   -4.118186|   -5.543910|
|         246|   -6.301884|   -4.001173|   -4.122735|   -5.548158|
|         247|   -6.309053|   -4.000351|   -4.126958|   -5.552401|
|         248|   -6.315329|   -3.999523|   -4.130806|   -5.556634|
|         249|   -6.320632|   -3.998668|   -4.134128|   -5.560861|
|         250|   -6.325309|   -3.997784|   -4.136932|   -5.565068|
|         251|   -6.329429|   -3.996889|   -4.139372|   -5.569249|
|         252|   -6.332862|   -3.995982|   -4.141482|   -5.573414|
|         253|   -6.335807|   -3.995037|   -4.143292|   -5.577579|
|         254|   -6.338459|   -3.994003|   -4.144757|   -5.581736|
|         255|   -6.340779|   -3.992959|   -4.145988|   -5.585892|
|         256|   -6.343654|   -3.991858|   -4.147099|   -5.590071|
|         257|   -6.346227|   -3.990792|   -4.148146|   -5.594214|
|         258|   -6.349421|   -3.989648|   -4.149218|   -5.598383|
|         259|   -6.352564|   -3.988516|   -4.150355|   -5.602509|
|         260|   -6.356373|   -3.987383|   -4.151670|   -5.606622|
|         261|   -6.360209|   -3.986228|   -4.153250|   -5.610684|
|         262|   -6.364288|   -3.985051|   -4.155078|   -5.614697|
|         263|   -6.368238|   -3.983754|   -4.157154|   -5.618657|
|         264|   -6.372066|   -3.982375|   -4.159369|   -5.622540|
|         265|   -6.375113|   -3.980844|   -4.161658|   -5.626353|
|         266|   -6.378017|   -3.979218|   -4.163868|   -5.630086|
|         267|   -6.379750|   -3.977531|   -4.165880|   -5.633703|
|         268|   -6.381173|   -3.975853|   -4.167601|   -5.637247|
|         269|   -6.381408|   -3.974279|   -4.168909|   -5.640640|
|         270|   -6.381064|   -3.972791|   -4.169700|   -5.643966|
|         271|   -6.380000|   -3.971492|   -4.169838|   -5.647137|
|         272|   -6.378442|   -3.970303|   -4.169537|   -5.650229|
|         273|   -6.376170|   -3.969337|   -4.168778|   -5.653171|
|         274|   -6.373689|   -3.968490|   -4.167723|   -5.656042|
|         275|   -6.370663|   -3.967761|   -4.166389|   -5.658806|
|         276|   -6.367819|   -3.967156|   -4.164784|   -5.661557|
|         277|   -6.365719|   -3.966758|   -4.163085|   -5.664260|
|         278|   -6.364073|   -3.966700|   -4.161237|   -5.666944|
|         279|   -6.363161|   -3.966933|   -4.159479|   -5.669627|
|         280|   -6.363521|   -3.967509|   -4.157871|   -5.672346|
|         281|   -6.364185|   -3.968363|   -4.156619|   -5.675021|
|         282|   -6.366088|   -3.969427|   -4.155842|   -5.677773|
|         283|   -6.367902|   -3.970704|   -4.155636|   -5.680509|
|         284|   -6.369874|   -3.972140|   -4.156115|   -5.683320|
|         285|   -6.372083|   -3.973760|   -4.157281|   -5.686227|
|         286|   -6.373783|   -3.975505|   -4.159122|   -5.689187|
|         287|   -6.374805|   -3.977299|   -4.161623|   -5.692238|
|         288|   -6.375348|   -3.979124|   -4.164744|   -5.695403|
|         289|   -6.375187|   -3.980946|   -4.168441|   -5.698656|
|         290|   -6.373945|   -3.982708|   -4.172607|   -5.701981|
|         291|   -6.371517|   -3.984333|   -4.177053|   -5.705358|
|         292|   -6.368042|   -3.985740|   -4.181480|   -5.708745|
|         293|   -6.363463|   -3.986852|   -4.185476|   -5.712100|
|         294|   -6.357799|   -3.987587|   -4.188617|   -5.715360|
|         295|   -6.351383|   -3.987898|   -4.190517|   -5.718498|
|         296|   -6.344145|   -3.987795|   -4.190767|   -5.721450|
|         297|   -6.335888|   -3.987279|   -4.189075|   -5.724126|
|         298|   -6.327170|   -3.986399|   -4.185381|   -5.726536|
|         299|   -6.318406|   -3.985330|   -4.179731|   -5.728636|
|         300|   -6.309323|   -3.984178|   -4.172409|   -5.730364|
|         301|   -6.299852|   -3.983053|   -4.163701|   -5.731704|
|         302|   -6.290221|   -3.982083|   -4.153952|   -5.732690|
|         303|   -6.280680|   -3.981452|   -4.143424|   -5.733369|
|         304|   -6.271611|   -3.981299|   -4.132472|   -5.733756|
|         305|   -6.262816|   -3.981661|   -4.121494|   -5.733870|
|         306|   -6.254279|   -3.982579|   -4.110774|   -5.733766|
|         307|   -6.246061|   -3.984101|   -4.100602|   -5.733497|
|         308|   -6.237928|   -3.986289|   -4.091546|   -5.733089|
|         309|   -6.229704|   -3.989148|   -4.083821|   -5.732603|
|         310|   -6.221448|   -3.992653|   -4.077525|   -5.732103|
|         311|   -6.213116|   -3.996757|   -4.072707|   -5.731642|
|         312|   -6.204738|   -4.001393|   -4.069344|   -5.731202|
|         313|   -6.196147|   -4.006461|   -4.067300|   -5.730840|
|         314|   -6.187356|   -4.011921|   -4.066398|   -5.730544|
|         315|   -6.178200|   -4.017763|   -4.066495|   -5.730374|
|         316|   -6.168563|   -4.024020|   -4.067520|   -5.730385|
|         317|   -6.158549|   -4.030693|   -4.069489|   -5.730718|
|         318|   -6.148250|   -4.037800|   -4.072567|   -5.731489|
|         319|   -6.137826|   -4.045349|   -4.076807|   -5.732849|
|         320|   -6.127734|   -4.053338|   -4.082069|   -5.734923|
|         321|   -6.118130|   -4.061699|   -4.088228|   -5.737763|
|         322|   -6.109599|   -4.070445|   -4.094726|   -5.741480|
|         323|   -6.103348|   -4.079430|   -4.100508|   -5.746094|
|         324|   -6.099011|   -4.088517|   -4.106207|   -5.751206|
|         325|   -6.095243|   -4.097357|   -4.112289|   -5.756736|
|         326|   -6.091358|   -4.105766|   -4.118652|   -5.762634|
|         327|   -6.087141|   -4.113620|   -4.125103|   -5.768850|
|         328|   -6.082691|   -4.120779|   -4.131466|   -5.775282|
|         329|   -6.078220|   -4.127205|   -4.137560|   -5.781813|
|         330|   -6.073771|   -4.132894|   -4.143146|   -5.788324|
|         331|   -6.069219|   -4.137930|   -4.147966|   -5.794723|
|         332|   -6.064521|   -4.142447|   -4.151857|   -5.800938|
|         333|   -6.059600|   -4.146604|   -4.154768|   -5.806917|
|         334|   -6.054475|   -4.150600|   -4.156763|   -5.812651|
|         335|   -6.049239|   -4.154586|   -4.158016|   -5.818153|
|         336|   -6.044006|   -4.158734|   -4.158769|   -5.823448|
|         337|   -6.038916|   -4.163136|   -4.159262|   -5.828555|
|         338|   -6.034029|   -4.167873|   -4.159690|   -5.833504|
|         339|   -6.029389|   -4.172985|   -4.160229|   -5.838341|
|         340|   -6.025099|   -4.178518|   -4.161079|   -5.843120|
|         341|   -6.021291|   -4.184518|   -4.162441|   -5.847830|
|         342|   -6.018044|   -4.190974|   -4.164454|   -5.852454|
|         343|   -6.015351|   -4.197790|   -4.167175|   -5.856949|
|         344|   -6.013141|   -4.204901|   -4.170576|   -5.861236|
|         345|   -6.011222|   -4.212174|   -4.174566|   -5.865202|
|         346|   -6.009423|   -4.219389|   -4.179018|   -5.868736|
|         347|   -6.007783|   -4.226376|   -4.180808|   -5.871793|
|         348|   -6.005977|   -4.233014|   -4.181300|   -5.874174|
|         349|   -6.004339|   -4.239234|   -4.181313|   -5.875789|
|         350|   -6.002870|   -4.244990|   -4.181036|   -5.875907|
|         351|   -6.001451|   -4.250225|   -4.180582|   -5.874270|
|         352|   -5.999927|   -4.254881|   -4.179950|   -5.871363|
|         353|   -5.998268|   -4.258956|   -4.179139|   -5.867504|
|         354|   -5.996504|   -4.262488|   -4.178181|   -5.863737|
|         355|   -5.994680|   -4.265497|   -4.177091|   -5.859867|
|         356|   -5.992824|   -4.267987|   -4.175885|   -5.855811|
|         357|   -5.990994|   -4.270082|   -4.174579|   -5.851531|
|         358|   -5.989244|   -4.271988|   -4.173258|   -5.847131|
|         359|   -5.987607|   -4.273823|   -4.172036|   -5.842724|
|         360|   -5.986084|   -4.275641|   -4.171001|   -5.838454|
|         361|   -5.984666|   -4.277440|   -4.170206|   -5.834437|
|         362|   -5.983344|   -4.279175|   -4.169639|   -5.830710|
|         363|   -5.982084|   -4.280737|   -4.169263|   -5.827309|
|         364|   -5.980862|   -4.282083|   -4.169014|   -5.824257|
|         365|   -5.979653|   -4.283229|   -4.168825|   -5.821547|
|         366|   -5.978447|   -4.284192|   -4.168656|   -5.819172|
|         367|   -5.977240|   -4.284998|   -4.168465|   -5.817091|
|         368|   -5.976059|   -4.285657|   -4.168275|   -5.815286|
|         369|   -5.974883|   -4.286192|   -4.168059|   -5.813747|
|         370|   -5.973737|   -4.286653|   -4.167829|   -5.812501|
|         371|   -5.972554|   -4.287089|   -4.167433|   -5.811635|
|         372|   -5.971519|   -4.287530|   -4.167121|   -5.811228|
|         373|   -5.970724|   -4.288016|   -4.166988|   -5.811374|
|         374|   -5.970108|   -4.288607|   -4.166843|   -5.812125|
|         375|   -5.969798|   -4.289385|   -4.166828|   -5.813446|
|         376|   -5.969811|   -4.290385|   -4.166985|   -5.815300|
|         377|   -5.970186|   -4.291609|   -4.167413|   -5.817640|
|         378|   -5.970927|   -4.293009|   -4.168181|   -5.820380|
|         379|   -5.971977|   -4.294497|   -4.169279|   -5.823401|
|         380|   -5.973340|   -4.295973|   -4.170765|   -5.826583|
|         381|   -5.974943|   -4.297278|   -4.172569|   -5.829883|
|         382|   -5.976786|   -4.298282|   -4.174726|   -5.833239|
|         383|   -5.978849|   -4.298895|   -4.177234|   -5.836558|
|         384|   -5.981054|   -4.299055|   -4.179993|   -5.839786|
|         385|   -5.983433|   -4.298721|   -4.183051|   -5.842884|
|         386|   -5.985951|   -4.297857|   -4.186333|   -5.845851|
|         387|   -5.988586|   -4.296436|   -4.189781|   -5.848705|
|         388|   -5.991357|   -4.294462|   -4.193413|   -5.851441|
|         389|   -5.994161|   -4.292007|   -4.197018|   -5.854018|
|         390|   -5.997037|   -4.289143|   -4.200606|   -5.856373|
|         391|   -6.000015|   -4.285910|   -4.204157|   -5.858435|
|         392|   -6.003049|   -4.282406|   -4.207631|   -5.860173|
|         393|   -6.006196|   -4.278782|   -4.211226|   -5.861492|
|         394|   -6.009320|   -4.275135|   -4.214734|   -5.862321|
|         395|   -6.012448|   -4.271595|   -4.218240|   -5.862611|
|         396|   -6.015545|   -4.268259|   -4.221763|   -5.862318|
|         397|   -6.018573|   -4.265254|   -4.225274|   -5.861417|
|         398|   -6.021528|   -4.262638|   -4.228738|   -5.859927|
|         399|   -6.024413|   -4.260407|   -4.232073|   -5.857948|
|         400|   -6.027244|   -4.258534|   -4.235152|   -5.855660|
|         401|   -6.029990|   -4.256990|   -4.236703|   -5.853262|
|         402|   -6.032595|   -4.255599|   -4.234304|   -5.850895|
|         403|   -6.034848|   -4.254197|   -4.231002|   -5.848528|
|         404|   -6.037421|   -4.252416|   -4.228360|   -5.846182|
|         405|   -6.040323|   -4.250125|   -4.226803|   -5.843839|
|         406|   -6.043472|   -4.247475|   -4.226459|   -5.841492|
|         407|   -6.046708|   -4.244748|   -4.227104|   -5.839126|
|         408|   -6.049930|   -4.242155|   -4.228161|   -5.836719|
|         409|   -6.053051|   -4.239769|   -4.229622|   -5.834229|
|         410|   -6.056105|   -4.237580|   -4.231635|   -5.831621|
|         411|   -6.059003|   -4.235588|   -4.234156|   -5.828942|
|         412|   -6.061871|   -4.233936|   -4.237644|   -5.826083|
|         413|   -6.064709|   -4.232493|   -4.241504|   -5.823109|
|         414|   -6.067599|   -4.231240|   -4.246212|   -5.819875|
|         415|   -6.070727|   -4.229991|   -4.251661|   -5.816466|
|         416|   -6.073779|   -4.228478|   -4.257196|   -5.812957|
|         417|   -6.077112|   -4.226643|   -4.263169|   -5.809221|
|         418|   -6.080446|   -4.224390|   -4.269372|   -5.805226|
|         419|   -6.083600|   -4.221658|   -4.275525|   -5.801021|
|         420|   -6.086399|   -4.218504|   -4.281405|   -5.796689|
|         421|   -6.089269|   -4.214927|   -4.286468|   -5.792155|
|         422|   -6.091815|   -4.210902|   -4.290468|   -5.787474|
|         423|   -6.094214|   -4.206488|   -4.294166|   -5.782644|
|         424|   -6.096406|   -4.201748|   -4.297657|   -5.777717|
|         425|   -6.098366|   -4.196657|   -4.300856|   -5.772657|
|         426|   -6.100048|   -4.191097|   -4.303093|   -5.767590|
|         427|   -6.101467|   -4.185066|   -4.304463|   -5.762598|
|         428|   -6.102769|   -4.178643|   -4.305340|   -5.757740|
|         429|   -6.103939|   -4.171899|   -4.305815|   -5.753122|
|         430|   -6.104919|   -4.164874|   -4.305770|   -5.748847|
|         431|   -6.105793|   -4.157623|   -4.305050|   -5.744896|
|         432|   -6.106511|   -4.150230|   -4.303559|   -5.741256|
|         433|   -6.107073|   -4.142773|   -4.301197|   -5.737833|
|         434|   -6.107563|   -4.135304|   -4.297884|   -5.734496|
|         435|   -6.108024|   -4.127898|   -4.293545|   -5.731120|
|         436|   -6.108173|   -4.120532|   -4.287529|   -5.727573|
|         437|   -6.108545|   -4.113351|   -4.280342|   -5.723758|
|         438|   -6.109141|   -4.106475|   -4.272364|   -5.719520|
|         439|   -6.109361|   -4.099909|   -4.263751|   -5.714897|
|         440|   -6.109301|   -4.093698|   -4.254627|   -5.709872|
|         441|   -6.108876|   -4.087891|   -4.245240|   -5.704624|
|         442|   -6.108212|   -4.082511|   -4.235714|   -5.699291|
|         443|   -6.107296|   -4.077485|   -4.226044|   -5.694125|
|         444|   -6.106739|   -4.072834|   -4.216299|   -5.689193|
|         445|   -6.106514|   -4.068570|   -4.206842|   -5.684761|
|         446|   -6.106536|   -4.064786|   -4.198031|   -5.680949|
|         447|   -6.106955|   -4.061431|   -4.190124|   -5.677854|
|         448|   -6.108191|   -4.058402|   -4.183124|   -5.675434|
|         449|   -6.110137|   -4.055514|   -4.177008|   -5.673612|
|         450|   -6.112636|   -4.052680|   -4.171585|   -5.672374|
|         451|   -6.115689|   -4.049840|   -4.166432|   -5.671808|
|         452|   -6.119744|   -4.047005|   -4.161858|   -5.671714|
|         453|   -6.123456|   -4.044202|   -4.157928|   -5.672028|
|         454|   -6.126505|   -4.041306|   -4.154665|   -5.672718|
|         455|   -6.128996|   -4.038311|   -4.152143|   -5.673790|
|         456|   -6.131263|   -4.035312|   -4.150521|   -5.675319|
|         457|   -6.134293|   -4.032600|   -4.150857|   -5.677169|
|         458|   -6.139097|   -4.030536|   -4.153896|   -5.679315|
|         459|   -6.147587|   -4.029025|   -4.159458|   -5.681558|
|         460|   -6.158899|   -4.029010|   -4.167807|   -5.683657|
|         461|   -6.173228|   -4.030704|   -4.178312|   -5.685500|
|         462|   -6.189837|   -4.033067|   -4.189329|   -5.687002|
|         463|   -6.205936|   -4.034892|   -4.199225|   -5.688125|
|         464|   -6.219082|   -4.036036|   -4.207623|   -5.688868|
|         465|   -6.230058|   -4.036731|   -4.214385|   -5.689255|
|         466|   -6.239814|   -4.037074|   -4.219701|   -5.689296|
|         467|   -6.248420|   -4.037250|   -4.224091|   -5.688965|
|         468|   -6.255455|   -4.037392|   -4.228081|   -5.688286|
|         469|   -6.261103|   -4.037539|   -4.232069|   -5.687278|
|         470|   -6.265837|   -4.037747|   -4.236310|   -5.685976|
|         471|   -6.270135|   -4.038052|   -4.241043|   -5.684396|
|         472|   -6.273844|   -4.038413|   -4.246186|   -5.682591|
|         473|   -6.276921|   -4.038721|   -4.251423|   -5.680620|
|         474|   -6.279300|   -4.038881|   -4.256426|   -5.678542|
|         475|   -6.280932|   -4.038847|   -4.260913|   -5.676433|
|         476|   -6.281646|   -4.038609|   -4.264745|   -5.674291|
|         477|   -6.281142|   -4.038165|   -4.267793|   -5.672115|
|         478|   -6.279359|   -4.037486|   -4.269945|   -5.669886|
|         479|   -6.276619|   -4.036509|   -4.270903|   -5.667700|
|         480|   -6.273063|   -4.035242|   -4.270888|   -5.665554|
|         481|   -6.268357|   -4.033690|   -4.269912|   -5.663472|
|         482|   -6.262824|   -4.031858|   -4.268165|   -5.661482|
|         483|   -6.257298|   -4.029816|   -4.265837|   -5.659574|
|         484|   -6.251872|   -4.027860|   -4.263208|   -5.657813|
|         485|   -6.246587|   -4.026401|   -4.259633|   -5.656310|
|         486|   -6.240431|   -4.025547|   -4.255040|   -5.655136|
|         487|   -6.233697|   -4.024764|   -4.253247|   -5.654342|
|         488|   -6.228633|   -4.023764|   -4.254166|   -5.654072|
|         489|   -6.225504|   -4.023290|   -4.256332|   -5.654348|
|         490|   -6.225750|   -4.024286|   -4.259235|   -5.655011|
|         491|   -6.226368|   -4.026642|   -4.262588|   -5.656060|
|         492|   -6.227237|   -4.029096|   -4.265893|   -5.657424|
|         493|   -6.228086|   -4.031566|   -4.268468|   -5.658928|
|         494|   -6.227490|   -4.034415|   -4.270499|   -5.660442|
|         495|   -6.225107|   -4.037678|   -4.271489|   -5.661956|
|         496|   -6.220791|   -4.041049|   -4.271402|   -5.663624|
|         497|   -6.215266|   -4.044194|   -4.270385|   -5.665563|
|         498|   -6.209807|   -4.047085|   -4.268473|   -5.667720|
|         499|   -6.204813|   -4.049943|   -4.265796|   -5.669880|
|         500|   -6.199995|   -4.052903|   -4.263289|   -5.671772|
|         501|   -6.194766|   -4.056021|   -4.261304|   -5.673317|
|         502|   -6.189596|   -4.059023|   -4.257422|   -5.674622|
|         503|   -6.186152|   -4.061774|   -4.252750|   -5.675743|
|         504|   -6.183434|   -4.063992|   -4.248072|   -5.676846|
|         505|   -6.180897|   -4.065808|   -4.243498|   -5.678012|
|         506|   -6.178873|   -4.067488|   -4.239049|   -5.679270|
|         507|   -6.177549|   -4.069338|   -4.234929|   -5.680615|
|         508|   -6.176776|   -4.071569|   -4.231440|   -5.682006|
|         509|   -6.176118|   -4.074344|   -4.228450|   -5.683407|
|         510|   -6.175054|   -4.077768|   -4.225642|   -5.684783|
|         511|   -6.173391|   -4.081833|   -4.222690|   -5.686108|
|         512|   -6.171051|   -4.086470|   -4.219284|   -5.687367|
|         513|   -6.168070|   -4.091534|   -4.215250|   -5.688554|
|         514|   -6.164682|   -4.096835|   -4.210594|   -5.689667|
|         515|   -6.161168|   -4.102164|   -4.205455|   -5.690723|
|         516|   -6.157779|   -4.107329|   -4.200072|   -5.691737|
|         517|   -6.154735|   -4.112179|   -4.194695|   -5.692719|
|         518|   -6.152172|   -4.116630|   -4.189519|   -5.693668|
|         519|   -6.150121|   -4.120617|   -4.184682|   -5.694585|
|         520|   -6.148509|   -4.124098|   -4.180247|   -5.695472|
|         521|   -6.147205|   -4.127026|   -4.176247|   -5.696336|
|         522|   -6.146040|   -4.129356|   -4.172679|   -5.697182|
|         523|   -6.144837|   -4.131058|   -4.169570|   -5.698022|
|         524|   -6.143407|   -4.132156|   -4.166950|   -5.698865|
|         525|   -6.141593|   -4.132734|   -4.164849|   -5.699721|
|         526|   -6.139299|   -4.132933|   -4.163315|   -5.700600|
|         527|   -6.136508|   -4.132936|   -4.162380|   -5.701510|
|         528|   -6.133281|   -4.132911|   -4.162033|   -5.702455|
|         529|   -6.129747|   -4.132961|   -4.162212|   -5.703440|
|         530|   -6.126116|   -4.133080|   -4.162818|   -5.704471|
|         531|   -6.122699|   -4.133205|   -4.163706|   -5.705549|
|         532|   -6.119953|   -4.133254|   -4.164744|   -5.706675|
|         533|   -6.118343|   -4.133529|   -4.165776|   -5.707851|
|         534|   -6.118279|   -4.134840|   -4.166707|   -5.709075|
|         535|   -6.119894|   -4.138392|   -4.167375|   -5.710343|
|         536|   -6.122699|   -4.144522|   -4.167706|   -5.711648|
|         537|   -6.125803|   -4.151985|   -4.168367|   -5.712994|
|         538|   -6.128655|   -4.160073|   -4.169927|   -5.714381|
|         539|   -6.130973|   -4.168126|   -4.172233|   -5.715797|
|         540|   -6.132733|   -4.175312|   -4.174925|   -5.717228|
|         541|   -6.134056|   -4.181061|   -4.177838|   -5.718661|
|         542|   -6.135074|   -4.185502|   -4.180785|   -5.720084|
|         543|   -6.135903|   -4.189172|   -4.183287|   -5.721489|
|         544|   -6.136631|   -4.192503|   -4.185135|   -5.722861|
|         545|   -6.137289|   -4.195720|   -4.186367|   -5.724189|
|         546|   -6.137881|   -4.198907|   -4.187094|   -5.725461|
|         547|   -6.138411|   -4.202121|   -4.187438|   -5.726666|
|         548|   -6.138875|   -4.205398|   -4.187536|   -5.727801|
|         549|   -6.139288|   -4.208713|   -4.187477|   -5.728862|
|         550|   -6.139675|   -4.212021|   -4.187314|   -5.729853|
|         551|   -6.140056|   -4.215280|   -4.187098|   -5.730780|
|         552|   -6.140451|   -4.218443|   -4.186857|   -5.731652|
|         553|   -6.140875|   -4.221468|   -4.186609|   -5.732481|
|         554|   -6.141339|   -4.224308|   -4.186364|   -5.733281|
|         555|   -6.141850|   -4.226920|   -4.186126|   -5.734065|
|         556|   -6.142415|   -4.229271|   -4.185906|   -5.734846|
|         557|   -6.143041|   -4.231337|   -4.185719|   -5.735638|
|         558|   -6.143731|   -4.233101|   -4.185575|   -5.736452|
|         559|   -6.144491|   -4.234551|   -4.185481|   -5.737295|
|         560|   -6.145326|   -4.235676|   -4.185446|   -5.738173|
|         561|   -6.146244|   -4.236474|   -4.185481|   -5.739086|
|         562|   -6.147252|   -4.236949|   -4.185598|   -5.740035|
|         563|   -6.148357|   -4.237115|   -4.185810|   -5.741015|
|         564|   -6.149565|   -4.236997|   -4.186128|   -5.742022|
|         565|   -6.150881|   -4.236623|   -4.186563|   -5.743051|
|         566|   -6.152309|   -4.236020|   -4.187124|   -5.744100|
|         567|   -6.153847|   -4.235212|   -4.187815|   -5.745169|
|         568|   -6.155491|   -4.234218|   -4.188630|   -5.746259|
|         569|   -6.157234|   -4.233050|   -4.189563|   -5.747378|
|         570|   -6.159068|   -4.231721|   -4.190609|   -5.748532|
|         571|   -6.160989|   -4.230237|   -4.191770|   -5.749733|
|         572|   -6.162992|   -4.228603|   -4.193041|   -5.750990|
|         573|   -6.165071|   -4.226823|   -4.194417|   -5.752315|
|         574|   -6.167223|   -4.224899|   -4.195898|   -5.753719|
|         575|   -6.169450|   -4.222827|   -4.197484|   -5.755208|
|         576|   -6.171757|   -4.220610|   -4.199182|   -5.756792|
|         577|   -6.174150|   -4.218249|   -4.200995|   -5.758474|
|         578|   -6.176634|   -4.215755|   -4.202926|   -5.760256|
|         579|   -6.179219|   -4.213141|   -4.204957|   -5.762141|
|         580|   -6.181908|   -4.210424|   -4.207105|   -5.764129|
|         581|   -6.184709|   -4.207620|   -4.209383|   -5.766218|
|         582|   -6.187625|   -4.204744|   -4.211794|   -5.768406|
|         583|   -6.190661|   -4.201803|   -4.214335|   -5.770693|
|         584|   -6.193823|   -4.198807|   -4.217011|   -5.773076|
|         585|   -6.197117|   -4.195763|   -4.219823|   -5.775553|
|         586|   -6.200547|   -4.192678|   -4.222768|   -5.778122|
|         587|   -6.204116|   -4.189560|   -4.225848|   -5.780780|
|         588|   -6.207825|   -4.186417|   -4.229060|   -5.783526|
|         589|   -6.211677|   -4.183254|   -4.232405|   -5.786356|
|         590|   -6.215667|   -4.180080|   -4.235871|   -5.789269|
|         591|   -6.219787|   -4.176902|   -4.239451|   -5.792261|
|         592|   -6.224028|   -4.173726|   -4.243143|   -5.795332|
|         593|   -6.228386|   -4.170560|   -4.246948|   -5.798477|
|         594|   -6.232857|   -4.167413|   -4.250870|   -5.801695|
|         595|   -6.237439|   -4.164294|   -4.254910|   -5.804983|
|         596|   -6.242134|   -4.161214|   -4.259077|   -5.808340|
|         597|   -6.246959|   -4.158174|   -4.262967|   -5.811760|
|         598|   -6.251843|   -4.155173|   -4.266570|   -5.815238|
|         599|   -6.256814|   -4.152220|   -4.270245|   -5.818770|
|         600|   -6.261968|   -4.149317|   -4.274173|   -5.822355|
|         601|   -6.267325|   -4.146464|   -4.278394|   -5.825992|
|         602|   -6.272886|   -4.143661|   -4.282910|   -5.829679|
|         603|   -6.278655|   -4.140913|   -4.287729|   -5.833416|
|         604|   -6.284645|   -4.138224|   -4.292868|   -5.837201|
|         605|   -6.290875|   -4.135602|   -4.298350|   -5.841033|
|         606|   -6.297365|   -4.133053|   -4.304194|   -5.844912|
|         607|   -6.304137|   -4.130577|   -4.310425|   -5.848838|
|         608|   -6.311225|   -4.128176|   -4.317073|   -5.852810|
|         609|   -6.318653|   -4.125851|   -4.324152|   -5.856826|
|         610|   -6.326439|   -4.123603|   -4.331679|   -5.860888|
|         611|   -6.334610|   -4.121437|   -4.339689|   -5.864994|
|         612|   -6.343192|   -4.119360|   -4.348211|   -5.869145|
|         613|   -6.352205|   -4.117375|   -4.357265|   -5.873340|
|         614|   -6.361670|   -4.115485|   -4.366861|   -5.877579|
|         615|   -6.371600|   -4.113694|   -4.377002|   -5.881863|
|         616|   -6.382007|   -4.112003|   -4.387688|   -5.886193|
|         617|   -6.392895|   -4.110415|   -4.398913|   -5.890570|
|         618|   -6.404255|   -4.108936|   -4.410656|   -5.894993|
|         619|   -6.416077|   -4.107573|   -4.422901|   -5.899465|
|         620|   -6.428358|   -4.106336|   -4.435658|   -5.903987|
|         621|   -6.441084|   -4.105232|   -4.448915|   -5.908559|
|         622|   -6.454188|   -4.104268|   -4.462570|   -5.913184|
|         623|   -6.467611|   -4.103447|   -4.476552|   -5.917860|
|         624|   -6.481284|   -4.102773|   -4.490775|   -5.922590|
|         625|   -6.495127|   -4.102243|   -4.505137|   -5.927374|
|         626|   -6.509034|   -4.101856|   -4.519505|   -5.932212|
|         627|   -6.522874|   -4.101610|   -4.533708|   -5.937105|
|         628|   -6.536506|   -4.101504|   -4.547574|   -5.942054|
|         629|   -6.549764|   -4.101536|   -4.560910|   -5.947058|
|         630|   -6.562460|   -4.101705|   -4.573518|   -5.952118|
|         631|   -6.574399|   -4.102007|   -4.585210|   -5.957232|
|         632|   -6.585381|   -4.102435|   -4.595804|   -5.962401|
|         633|   -6.595212|   -4.102983|   -4.605119|   -5.967623|
|         634|   -6.603711|   -4.103643|   -4.612984|   -5.972897|
|         635|   -6.610728|   -4.104407|   -4.619246|   -5.978221|
|         636|   -6.616150|   -4.105268|   -4.623797|   -5.983595|
|         637|   -6.619915|   -4.106222|   -4.626587|   -5.989016|
|         638|   -6.622018|   -4.107264|   -4.627636|   -5.994482|
|         639|   -6.622536|   -4.108389|   -4.627019|   -5.999988|
|         640|   -6.621546|   -4.109592|   -4.624923|   -6.005530|
|         641|   -6.619186|   -4.110868|   -4.621565|   -6.011106|
|         642|   -6.615624|   -4.112210|   -4.617164|   -6.016712|
|         643|   -6.611047|   -4.113608|   -4.611940|   -6.022345|
|         644|   -6.605651|   -4.115053|   -4.606091|   -6.028005|
|         645|   -6.599630|   -4.116536|   -4.599786|   -6.033689|
|         646|   -6.593165|   -4.118050|   -4.593162|   -6.039394|
|         647|   -6.586407|   -4.119586|   -4.586333|   -6.045117|
|         648|   -6.579494|   -4.121142|   -4.579430|   -6.050856|
|         649|   -6.572546|   -4.122720|   -4.572591|   -6.056611|
|         650|   -6.565644|   -4.124322|   -4.565924|   -6.062380|
|         651|   -6.558845|   -4.125955|   -4.559516|   -6.068161|
|         652|   -6.552182|   -4.127622|   -4.553421|   -6.073950|
|         653|   -6.545679|   -4.129329|   -4.547670|   -6.079746|
|         654|   -6.539338|   -4.131079|   -4.542258|   -6.085545|
|         655|   -6.533157|   -4.132877|   -4.537154|   -6.091345|
|         656|   -6.527120|   -4.134727|   -4.532327|   -6.097145|
|         657|   -6.521207|   -4.136638|   -4.527739|   -6.102944|
|         658|   -6.515392|   -4.138615|   -4.523347|   -6.108739|
|         659|   -6.509645|   -4.140668|   -4.519120|   -6.114532|
|         660|   -6.503929|   -4.142800|   -4.515031|   -6.120323|
|         661|   -6.498196|   -4.145011|   -4.511038|   -6.126113|
|         662|   -6.492395|   -4.147303|   -4.507099|   -6.131906|
|         663|   -6.486483|   -4.149672|   -4.503193|   -6.137708|
|         664|   -6.480434|   -4.152116|   -4.499298|   -6.143523|
|         665|   -6.474236|   -4.154638|   -4.495389|   -6.149360|
|         666|   -6.467881|   -4.157241|   -4.491419|   -6.155224|
|         667|   -6.461335|   -4.159933|   -4.487376|   -6.161118|
|         668|   -6.454602|   -4.162721|   -4.483258|   -6.167050|
|         669|   -6.447703|   -4.165606|   -4.479088|   -6.173021|
|         670|   -6.440662|   -4.168591|   -4.474889|   -6.179032|
|         671|   -6.433470|   -4.171677|   -4.470645|   -6.185079|
|         672|   -6.426124|   -4.174864|   -4.466367|   -6.191157|
|         673|   -6.418630|   -4.178154|   -4.462094|   -6.197260|
|         674|   -6.411004|   -4.181548|   -4.457879|   -6.203377|
|         675|   -6.403259|   -4.185049|   -4.453738|   -6.209492|
|         676|   -6.395419|   -4.188653|   -4.449677|   -6.215586|
|         677|   -6.387503|   -4.192357|   -4.445697|   -6.221630|
|         678|   -6.379532|   -4.196157|   -4.441791|   -6.227596|
|         679|   -6.371534|   -4.200047|   -4.437957|   -6.233450|
|         680|   -6.363533|   -4.204020|   -4.434210|   -6.239156|
|         681|   -6.355548|   -4.208062|   -4.430579|   -6.244679|
|         682|   -6.347595|   -4.212162|   -4.427090|   -6.249977|
|         683|   -6.339695|   -4.216304|   -4.423792|   -6.255007|
|         684|   -6.331859|   -4.220477|   -4.420692|   -6.259727|
|         685|   -6.324087|   -4.224679|   -4.417787|   -6.264099|
|         686|   -6.316379|   -4.228900|   -4.415084|   -6.268082|
|         687|   -6.308747|   -4.233149|   -4.412593|   -6.271639|
|         688|   -6.301207|   -4.237421|   -4.410365|   -6.274733|
|         689|   -6.293770|   -4.241698|   -4.408419|   -6.277326|
|         690|   -6.286439|   -4.245955|   -4.406751|   -6.279383|
|         691|   -6.279234|   -4.250157|   -4.405376|   -6.280871|
|         692|   -6.272170|   -4.254288|   -4.404303|   -6.281759|
|         693|   -6.265296|   -4.258328|   -4.403067|   -6.282042|
|         694|   -6.258488|   -4.262295|   -4.402003|   -6.281695|
|         695|   -6.251805|   -4.266177|   -4.401243|   -6.280691|
|         696|   -6.245265|   -4.269957|   -4.400831|   -6.279011|
|         697|   -6.238865|   -4.273620|   -4.400779|   -6.276639|
|         698|   -6.232592|   -4.277161|   -4.401090|   -6.273572|
|         699|   -6.226453|   -4.280556|   -4.401728|   -6.269817|
|         700|   -6.220441|   -4.283799|   -4.402613|   -6.265390|
|         701|   -6.214534|   -4.286898|   -4.403915|   -6.260305|
|         702|   -6.208744|   -4.289868|   -4.405702|   -6.254592|
|         703|   -6.203074|   -4.292744|   -4.408018|   -6.248295|
|         704|   -6.197577|   -4.295546|   -4.409960|   -6.241565|
|         705|   -6.192075|   -4.298342|   -4.412029|   -6.234472|
|         706|   -6.186615|   -4.301179|   -4.414427|   -6.227122|
|         707|   -6.181212|   -4.304147|   -4.417236|   -6.219641|
|         708|   -6.175858|   -4.307330|   -4.420514|   -6.212179|
|         709|   -6.170539|   -4.310804|   -4.424301|   -6.204899|
|         710|   -6.165245|   -4.314628|   -4.428645|   -6.197988|
|         711|   -6.160289|   -4.318743|   -4.428833|   -6.192150|
|         712|   -6.154974|   -4.323263|   -4.426991|   -6.187351|
|         713|   -6.149633|   -4.328109|   -4.424858|   -6.183399|
|         714|   -6.144527|   -4.333211|   -4.422967|   -6.180076|
|         715|   -6.139662|   -4.338510|   -4.421428|   -6.177147|
|         716|   -6.134992|   -4.343932|   -4.420239|   -6.174437|
|         717|   -6.130652|   -4.349319|   -4.416378|   -6.172048|
|         718|   -6.126190|   -4.354686|   -4.410926|   -6.169752|
|         719|   -6.121734|   -4.359977|   -4.405253|   -6.167324|
|         720|   -6.117472|   -4.365172|   -4.399794|   -6.164671|
|         721|   -6.113415|   -4.370297|   -4.394653|   -6.161781|
|         722|   -6.109624|   -4.375399|   -4.389946|   -6.158659|
|         723|   -6.106058|   -4.380500|   -4.385587|   -6.155367|
|         724|   -6.102733|   -4.385612|   -4.381585|   -6.151941|
|         725|   -6.099620|   -4.390744|   -4.377861|   -6.148439|
|         726|   -6.096685|   -4.395889|   -4.374301|   -6.144934|
|         727|   -6.093870|   -4.401035|   -4.370874|   -6.141472|
|         728|   -6.091181|   -4.406185|   -4.367591|   -6.138050|
|         729|   -6.088605|   -4.411356|   -4.364404|   -6.134692|
|         730|   -6.086241|   -4.416569|   -4.361477|   -6.131350|
|         731|   -6.083998|   -4.421799|   -4.358642|   -6.128034|
|         732|   -6.081892|   -4.427032|   -4.355923|   -6.124714|
|         733|   -6.079925|   -4.432228|   -4.353326|   -6.121394|
|         734|   -6.078117|   -4.437373|   -4.350945|   -6.118085|
|         735|   -6.076341|   -4.442378|   -4.348515|   -6.114839|
|         736|   -6.074691|   -4.447209|   -4.346186|   -6.111643|
|         737|   -6.073218|   -4.451837|   -4.344072|   -6.108421|
|         738|   -6.071849|   -4.456207|   -4.342039|   -6.105174|
|         739|   -6.070610|   -4.460271|   -4.340113|   -6.101886|
|         740|   -6.069529|   -4.463983|   -4.338349|   -6.098597|
|         741|   -6.068605|   -4.467289|   -4.336749|   -6.095374|
|         742|   -6.067850|   -4.470134|   -4.335344|   -6.092235|
|         743|   -6.067192|   -4.472444|   -4.333990|   -6.089138|
|         744|   -6.066692|   -4.474197|   -4.332820|   -6.086033|
|         745|   -6.066302|   -4.475348|   -4.331714|   -6.082927|
|         746|   -6.066041|   -4.475906|   -4.330722|   -6.079846|
|         747|   -6.065916|   -4.475931|   -4.329883|   -6.076794|
|         748|   -6.065911|   -4.475484|   -4.329185|   -6.073759|
|         749|   -6.066009|   -4.474619|   -4.328577|   -6.070734|
|         750|   -6.066219|   -4.473356|   -4.328079|   -6.067756|
|         751|   -6.066565|   -4.471699|   -4.327735|   -6.064891|
|         752|   -6.067022|   -4.469652|   -4.327485|   -6.062188|
|         753|   -6.067585|   -4.467264|   -4.327306|   -6.059616|
|         754|   -6.068252|   -4.464633|   -4.327193|   -6.057067|
|         755|   -6.069034|   -4.461856|   -4.327151|   -6.054414|
|         756|   -6.069931|   -4.459016|   -4.327163|   -6.051569|
|         757|   -6.070954|   -4.456172|   -4.327264|   -6.048493|
|         758|   -6.072087|   -4.453421|   -4.327464|   -6.045179|
|         759|   -6.073297|   -4.450774|   -4.327758|   -6.041637|
|         760|   -6.074570|   -4.448271|   -4.328164|   -6.037896|
|         761|   -6.075891|   -4.445937|   -4.328687|   -6.033989|
|         762|   -6.077249|   -4.443845|   -4.329312|   -6.029932|
|         763|   -6.078633|   -4.442076|   -4.330015|   -6.025731|
|         764|   -6.080021|   -4.440654|   -4.330787|   -6.021405|
|         765|   -6.081400|   -4.439569|   -4.331648|   -6.017019|
|         766|   -6.082763|   -4.438744|   -4.332609|   -6.012691|
|         767|   -6.084091|   -4.438146|   -4.333663|   -6.008559|
|         768|   -6.085380|   -4.437746|   -4.334790|   -6.004722|
|         769|   -6.086622|   -4.437538|   -4.335969|   -6.001215|
|         770|   -6.087821|   -4.437511|   -4.337181|   -5.998021|
|         771|   -6.088979|   -4.437663|   -4.338442|   -5.995116|
|         772|   -6.090103|   -4.437976|   -4.339769|   -5.992472|
|         773|   -6.091189|   -4.438422|   -4.341180|   -5.990071|
|         774|   -6.092235|   -4.439001|   -4.342680|   -5.987889|
|         775|   -6.093233|   -4.439653|   -4.344253|   -5.985925|
|         776|   -6.094190|   -4.440345|   -4.345888|   -5.984131|
|         777|   -6.095108|   -4.441026|   -4.347581|   -5.982513|
|         778|   -6.095995|   -4.441641|   -4.349341|   -5.981043|
|         779|   -6.096847|   -4.442135|   -4.351173|   -5.979828|
|         780|   -6.097680|   -4.442493|   -4.353090|   -5.978772|
|         781|   -6.098536|   -4.442679|   -4.355093|   -5.977877|
|         782|   -6.099362|   -4.442645|   -4.357173|   -5.977206|
|         783|   -6.100182|   -4.442332|   -4.359304|   -5.976806|
|         784|   -6.101063|   -4.441705|   -4.361479|   -5.976599|
|         785|   -6.101982|   -4.440737|   -4.363687|   -5.976724|
|         786|   -6.102963|   -4.439373|   -4.365916|   -5.977068|
|         787|   -6.104033|   -4.437566|   -4.368156|   -5.977717|
|         788|   -6.105161|   -4.435330|   -4.370407|   -5.978799|
|         789|   -6.106429|   -4.432589|   -4.372673|   -5.980206|
|         790|   -6.107855|   -4.429369|   -4.374939|   -5.981832|
|         791|   -6.109402|   -4.425654|   -4.377219|   -5.983754|
|         792|   -6.111080|   -4.421457|   -4.379538|   -5.985976|
|         793|   -6.112960|   -4.416801|   -4.381915|   -5.988575|
|         794|   -6.115003|   -4.411728|   -4.384366|   -5.991585|
|         795|   -6.117274|   -4.406260|   -4.386915|   -5.995194|
|         796|   -6.119755|   -4.400438|   -4.389574|   -5.999245|
|         797|   -6.122495|   -4.394304|   -4.392347|   -6.003766|
|         798|   -6.125482|   -4.387940|   -4.395254|   -6.008753|
|         799|   -6.128716|   -4.381362|   -4.398316|   -6.014247|
|         800|   -6.132185|   -4.374659|   -4.401550|   -6.020258|
|         801|   -6.135902|   -4.367889|   -4.404970|   -6.026761|
|         802|   -6.139847|   -4.361102|   -4.408624|   -6.033732|
|         803|   -6.144017|   -4.354347|   -4.412527|   -6.041142|
|         804|   -6.148401|   -4.347664|   -4.416669|   -6.048917|
|         805|   -6.152984|   -4.341095|   -4.421050|   -6.056987|
|         806|   -6.157759|   -4.334672|   -4.425661|   -6.065251|
|         807|   -6.162712|   -4.328423|   -4.430469|   -6.073693|
|         808|   -6.167827|   -4.322363|   -4.435414|   -6.082239|
|         809|   -6.173078|   -4.316510|   -4.440418|   -6.090813|
|         810|   -6.178443|   -4.310867|   -4.445377|   -6.099344|
|         811|   -6.183899|   -4.305434|   -4.450177|   -6.107729|
|         812|   -6.189417|   -4.300223|   -4.454713|   -6.115847|
|         813|   -6.194964|   -4.295248|   -4.458874|   -6.123611|
|         814|   -6.200513|   -4.290507|   -4.462540|   -6.131016|
|         815|   -6.206039|   -4.286006|   -4.465622|   -6.138001|
|         816|   -6.211529|   -4.281751|   -4.468059|   -6.144523|
|         817|   -6.216953|   -4.277772|   -4.469837|   -6.150556|
|         818|   -6.222269|   -4.274059|   -4.471001|   -6.156120|
|         819|   -6.227449|   -4.270617|   -4.471571|   -6.161245|
|         820|   -6.232483|   -4.267496|   -4.471670|   -6.165978|
|         821|   -6.237362|   -4.264693|   -4.471489|   -6.170358|
|         822|   -6.242114|   -4.262186|   -4.471174|   -6.174448|
|         823|   -6.246771|   -4.259988|   -4.470737|   -6.178346|
|         824|   -6.251354|   -4.258078|   -4.470065|   -6.181895|
|         825|   -6.255879|   -4.256430|   -4.469049|   -6.185092|
|         826|   -6.260313|   -4.254998|   -4.467569|   -6.187754|
|         827|   -6.264667|   -4.253731|   -4.465575|   -6.189718|
|         828|   -6.268845|   -4.252583|   -4.463103|   -6.190904|
|         829|   -6.272827|   -4.251506|   -4.460247|   -6.191304|
|         830|   -6.276556|   -4.250470|   -4.457059|   -6.190778|
|         831|   -6.280012|   -4.249458|   -4.453552|   -6.189366|
|         832|   -6.283192|   -4.248485|   -4.449765|   -6.187050|
|         833|   -6.286117|   -4.247585|   -4.445753|   -6.183847|
|         834|   -6.288808|   -4.246786|   -4.441581|   -6.179721|
|         835|   -6.291345|   -4.246113|   -4.437288|   -6.174865|
|         836|   -6.293702|   -4.245590|   -4.432928|   -6.169193|
|         837|   -6.295984|   -4.245225|   -4.428573|   -6.162780|
|         838|   -6.298125|   -4.245031|   -4.424296|   -6.155773|
|         839|   -6.300093|   -4.244977|   -4.420146|   -6.148327|
|         840|   -6.301857|   -4.245052|   -4.416143|   -6.140506|
|         841|   -6.303364|   -4.245231|   -4.412274|   -6.132378|
|         842|   -6.304580|   -4.245474|   -4.408507|   -6.123976|
|         843|   -6.305434|   -4.245747|   -4.404819|   -6.115498|
|         844|   -6.305997|   -4.246009|   -4.401174|   -6.107100|
|         845|   -6.306298|   -4.246249|   -4.397590|   -6.098680|
|         846|   -6.306423|   -4.246302|   -4.394108|   -6.090087|
|         847|   -6.306370|   -4.246091|   -4.390892|   -6.081620|
|         848|   -6.305930|   -4.245710|   -4.388100|   -6.073576|
|         849|   -6.305086|   -4.245246|   -4.385839|   -6.066124|
|         850|   -6.304290|   -4.244875|   -4.383993|   -6.059254|
|         851|   -6.304106|   -4.244758|   -4.382096|   -6.053123|
|         852|   -6.304361|   -4.244836|   -4.380210|   -6.048108|
|         853|   -6.304636|   -4.244965|   -4.379342|   -6.044332|
|         854|   -6.305794|   -4.244985|   -4.379790|   -6.041330|
|         855|   -6.308712|   -4.244806|   -4.381236|   -6.038567|
|         856|   -6.312756|   -4.244748|   -4.383160|   -6.035990|
|         857|   -6.316791|   -4.245171|   -4.385149|   -6.033412|
|         858|   -6.320425|   -4.246011|   -4.387170|   -6.030384|
|         859|   -6.323903|   -4.246766|   -4.389146|   -6.026707|
|         860|   -6.326608|   -4.247215|   -4.390743|   -6.022423|
|         861|   -6.328008|   -4.247454|   -4.391702|   -6.017782|
|         862|   -6.328061|   -4.247593|   -4.392119|   -6.013285|
|         863|   -6.327155|   -4.247620|   -4.391979|   -6.009617|
|         864|   -6.325805|   -4.247503|   -4.391323|   -6.007079|
|         865|   -6.324702|   -4.247125|   -4.390251|   -6.005385|
|         866|   -6.324031|   -4.246503|   -4.388838|   -6.003733|
|         867|   -6.323520|   -4.245921|   -4.387556|   -6.001584|
|         868|   -6.322996|   -4.245668|   -4.386937|   -5.998952|
|         869|   -6.322360|   -4.246011|   -4.386782|   -5.996277|
|         870|   -6.321717|   -4.246702|   -4.386590|   -5.994115|
|         871|   -6.321735|   -4.247398|   -4.386549|   -5.992798|
|         872|   -6.323834|   -4.247977|   -4.387451|   -5.992231|
|         873|   -6.329108|   -4.248470|   -4.389871|   -5.992240|
|         874|   -6.337644|   -4.248964|   -4.393952|   -5.992653|
|         875|   -6.348981|   -4.249569|   -4.399449|   -5.993206|
|         876|   -6.362528|   -4.250316|   -4.405839|   -5.993662|
|         877|   -6.377503|   -4.251214|   -4.412500|   -5.993875|
|         878|   -6.393048|   -4.252264|   -4.418580|   -5.993799|
|         879|   -6.409118|   -4.253399|   -4.423837|   -5.993446|
|         880|   -6.425410|   -4.254562|   -4.428717|   -5.992834|
|         881|   -6.440360|   -4.255687|   -4.432928|   -5.992020|
|         882|   -6.453577|   -4.256702|   -4.436473|   -5.991057|
|         883|   -6.465324|   -4.257560|   -4.439508|   -5.989995|
|         884|   -6.475788|   -4.258236|   -4.442129|   -5.988877|
|         885|   -6.485003|   -4.258734|   -4.444342|   -5.987730|
|         886|   -6.493048|   -4.259056|   -4.446074|   -5.986580|
|         887|   -6.500083|   -4.259216|   -4.447246|   -5.985461|
|         888|   -6.506357|   -4.259352|   -4.447757|   -5.984391|
|         889|   -6.512123|   -4.259561|   -4.447488|   -5.983384|
|         890|   -6.517578|   -4.259933|   -4.446292|   -5.982448|
|         891|   -6.522622|   -4.260643|   -4.443977|   -5.981577|
|         892|   -6.526991|   -4.261840|   -4.441233|   -5.980751|
|         893|   -6.530212|   -4.263103|   -4.438381|   -5.979975|
|         894|   -6.532008|   -4.264199|   -4.435632|   -5.979259|
|         895|   -6.532131|   -4.265019|   -4.432989|   -5.978602|
|         896|   -6.530399|   -4.265508|   -4.430284|   -5.977993|
|         897|   -6.526823|   -4.265603|   -4.427390|   -5.977412|
|         898|   -6.521500|   -4.265246|   -4.423848|   -5.976837|
|         899|   -6.514533|   -4.264392|   -4.419409|   -5.976248|
|         900|   -6.506363|   -4.263054|   -4.413917|   -5.975640|
|         901|   -6.498210|   -4.261316|   -4.407159|   -5.975039|
|         902|   -6.489859|   -4.259390|   -4.399580|   -5.974407|
|         903|   -6.481761|   -4.257393|   -4.391536|   -5.973742|
|         904|   -6.474056|   -4.255507|   -4.383256|   -5.973044|
|         905|   -6.466630|   -4.253856|   -4.374933|   -5.972301|
|         906|   -6.459040|   -4.252425|   -4.366770|   -5.971494|
|         907|   -6.450496|   -4.251149|   -4.358987|   -5.970594|
|         908|   -6.440007|   -4.249831|   -4.351738|   -5.969566|
|         909|   -6.428101|   -4.248216|   -4.344533|   -5.968606|
|         910|   -6.413496|   -4.246357|   -4.338125|   -5.967560|
|         911|   -6.395574|   -4.244106|   -4.333139|   -5.966467|
|         912|   -6.375354|   -4.241807|   -4.329646|   -5.965294|
|         913|   -6.354027|   -4.239993|   -4.327698|   -5.964088|
|         914|   -6.332879|   -4.239082|   -4.327419|   -5.962867|
|         915|   -6.313089|   -4.239349|   -4.328871|   -5.961676|
|         916|   -6.295761|   -4.240832|   -4.331899|   -5.960488|
|         917|   -6.281700|   -4.243256|   -4.336156|   -5.959285|
|         918|   -6.271943|   -4.246327|   -4.341158|   -5.958022|
|         919|   -6.267678|   -4.250442|   -4.345905|   -5.956713|
|         920|   -6.269984|   -4.256848|   -4.349476|   -5.955384|
|         921|   -6.277733|   -4.266784|   -4.351311|   -5.954144|
|         922|   -6.285269|   -4.279437|   -4.352363|   -5.953166|
|         923|   -6.289595|   -4.291995|   -4.355827|   -5.952488|
|         924|   -6.290683|   -4.302971|   -4.361987|   -5.951993|
|         925|   -6.289437|   -4.311718|   -4.369330|   -5.951531|
|         926|   -6.286746|   -4.318397|   -4.376791|   -5.951030|
|         927|   -6.283364|   -4.323822|   -4.384063|   -5.950462|
|         928|   -6.279864|   -4.328826|   -4.390316|   -5.949803|
|         929|   -6.276313|   -4.333535|   -4.395067|   -5.949043|
|         930|   -6.272647|   -4.338200|   -4.398644|   -5.948195|
|         931|   -6.268775|   -4.342959|   -4.401346|   -5.947268|
|         932|   -6.264794|   -4.347818|   -4.403388|   -5.946270|
|         933|   -6.260814|   -4.352810|   -4.404855|   -5.945218|
|         934|   -6.256911|   -4.357951|   -4.405786|   -5.944143|
|         935|   -6.253168|   -4.363237|   -4.406228|   -5.943079|
|         936|   -6.249695|   -4.368623|   -4.406253|   -5.942052|
|         937|   -6.246588|   -4.374016|   -4.405940|   -5.941082|
|         938|   -6.243923|   -4.379313|   -4.405387|   -5.940180|
|         939|   -6.241722|   -4.384425|   -4.404680|   -5.939347|
|         940|   -6.239946|   -4.389276|   -4.403866|   -5.938586|
|         941|   -6.238517|   -4.393790|   -4.402973|   -5.937897|
|         942|   -6.237338|   -4.397926|   -4.401970|   -5.937283|
|         943|   -6.236322|   -4.401672|   -4.400848|   -5.936751|
|         944|   -6.235392|   -4.404996|   -4.399556|   -5.936303|
|         945|   -6.234520|   -4.407878|   -4.398045|   -5.935938|
|         946|   -6.233693|   -4.410336|   -4.396298|   -5.935649|
|         947|   -6.232907|   -4.412397|   -4.394322|   -5.935422|
|         948|   -6.232148|   -4.414093|   -4.392113|   -5.935240|
|         949|   -6.231390|   -4.415473|   -4.389670|   -5.935081|
|         950|   -6.230596|   -4.416583|   -4.386992|   -5.934924|
|         951|   -6.229739|   -4.417486|   -4.384085|   -5.934752|
|         952|   -6.228807|   -4.418213|   -4.380955|   -5.934549|
|         953|   -6.227806|   -4.418824|   -4.377620|   -5.934306|
|         954|   -6.226757|   -4.419382|   -4.374101|   -5.934013|
|         955|   -6.225674|   -4.419906|   -4.370418|   -5.933663|
|         956|   -6.224598|   -4.420406|   -4.366574|   -5.933253|
|         957|   -6.223546|   -4.420898|   -4.362587|   -5.932782|
|         958|   -6.222526|   -4.421398|   -4.358470|   -5.932247|
|         959|   -6.221551|   -4.421937|   -4.354241|   -5.931651|
|         960|   -6.220629|   -4.422512|   -4.349917|   -5.930996|
|         961|   -6.219774|   -4.423133|   -4.345510|   -5.930287|
|         962|   -6.218990|   -4.423802|   -4.341026|   -5.929530|
|         963|   -6.218279|   -4.424507|   -4.336488|   -5.928730|
|         964|   -6.217633|   -4.425238|   -4.331927|   -5.927899|
|         965|   -6.217039|   -4.425985|   -4.327376|   -5.927047|
|         966|   -6.216486|   -4.426723|   -4.322877|   -5.926182|
|         967|   -6.215959|   -4.427430|   -4.318467|   -5.925314|
|         968|   -6.215437|   -4.428077|   -4.314186|   -5.924454|
|         969|   -6.214894|   -4.428620|   -4.310068|   -5.923613|
|         970|   -6.214311|   -4.429053|   -4.306139|   -5.922804|
|         971|   -6.213671|   -4.429355|   -4.302418|   -5.922036|
|         972|   -6.212972|   -4.429502|   -4.298910|   -5.921317|
|         973|   -6.212219|   -4.429488|   -4.295603|   -5.920656|
|         974|   -6.211417|   -4.429312|   -4.292478|   -5.920058|
|         975|   -6.210581|   -4.429005|   -4.289514|   -5.919526|
|         976|   -6.209726|   -4.428592|   -4.286685|   -5.919059|
|         977|   -6.208873|   -4.428101|   -4.283961|   -5.918664|
|         978|   -6.208033|   -4.427574|   -4.281289|   -5.918343|
[...]
|        2710|   -6.903677|   -4.705208|   -5.280601|   -6.759365|
|        2711|   -6.898178|   -4.707016|   -5.277492|   -6.759043|
|        2712|   -6.892814|   -4.708854|   -5.274282|   -6.758722|
|        2713|   -6.887584|   -4.710723|   -5.270980|   -6.758402|
|        2714|   -6.882479|   -4.712620|   -5.267594|   -6.758084|
|        2715|   -6.877490|   -4.714547|   -5.264136|   -6.757768|
|        2716|   -6.872612|   -4.716499|   -5.260614|   -6.757453|
|        2717|   -6.867831|   -4.718480|   -5.257040|   -6.757141|
|        2718|   -6.863147|   -4.720488|   -5.253423|   -6.756831|
|        2719|   -6.858550|   -4.722523|   -5.249774|   -6.756526|
|        2720|   -6.854035|   -4.724588|   -5.246103|   -6.756224|
|        2721|   -6.849591|   -4.726678|   -5.242416|   -6.755928|
|        2722|   -6.845213|   -4.728798|   -5.238721|   -6.755640|
|        2723|   -6.840895|   -4.730945|   -5.235023|   -6.755358|
|        2724|   -6.836630|   -4.733124|   -5.231324|   -6.755082|
|        2725|   -6.832416|   -4.735332|   -5.227625|   -6.754812|
|        2726|   -6.828242|   -4.737574|   -5.223924|   -6.754551|
|        2727|   -6.824111|   -4.739850|   -5.220217|   -6.754295|
|        2728|   -6.820009|   -4.742161|   -5.216497|   -6.754043|
|        2729|   -6.815944|   -4.744510|   -5.212756|   -6.753791|
|        2730|   -6.811907|   -4.746900|   -5.208984|   -6.753539|
|        2731|   -6.807900|   -4.749332|   -5.205171|   -6.753285|
|        2732|   -6.803918|   -4.751810|   -5.201305|   -6.753029|
|        2733|   -6.799963|   -4.754336|   -5.197375|   -6.752767|
|        2734|   -6.796034|   -4.756913|   -5.193370|   -6.752499|
|        2735|   -6.792132|   -4.759543|   -5.189280|   -6.752226|
|        2736|   -6.788257|   -4.762231|   -5.185096|   -6.751945|
|        2737|   -6.784410|   -4.764977|   -5.180814|   -6.751657|
|        2738|   -6.780593|   -4.767784|   -5.176429|   -6.751357|
|        2739|   -6.776805|   -4.770657|   -5.171942|   -6.751044|
|        2740|   -6.773051|   -4.773594|   -5.167356|   -6.750716|
|        2741|   -6.769330|   -4.776605|   -5.162675|   -6.750370|
|        2742|   -6.765646|   -4.779684|   -5.157909|   -6.750011|
|        2743|   -6.762000|   -4.782834|   -5.153066|   -6.749644|
|        2744|   -6.758394|   -4.786055|   -5.148157|   -6.749266|
|        2745|   -6.754831|   -4.789343|   -5.143195|   -6.748876|
|        2746|   -6.751310|   -4.792702|   -5.138195|   -6.748473|
|        2747|   -6.747834|   -4.796129|   -5.133169|   -6.748055|
|        2748|   -6.744405|   -4.799621|   -5.128132|   -6.747623|
|        2749|   -6.741022|   -4.803182|   -5.123096|   -6.747176|
|        2750|   -6.737689|   -4.806807|   -5.118075|   -6.746716|
|        2751|   -6.734407|   -4.810494|   -5.113078|   -6.746245|
|        2752|   -6.731176|   -4.814245|   -5.108114|   -6.745762|
|        2753|   -6.728000|   -4.818059|   -5.103191|   -6.745269|
|        2754|   -6.724878|   -4.821932|   -5.098315|   -6.744766|
|        2755|   -6.721811|   -4.825866|   -5.093479|   -6.744258|
|        2756|   -6.718800|   -4.829861|   -5.088689|   -6.743744|
|        2757|   -6.715846|   -4.833917|   -5.083951|   -6.743223|
|        2758|   -6.712951|   -4.838032|   -5.079269|   -6.742695|
|        2759|   -6.710115|   -4.842207|   -5.074642|   -6.742160|
|        2760|   -6.707338|   -4.846444|   -5.070072|   -6.741628|
|        2761|   -6.704622|   -4.850744|   -5.065558|   -6.741096|
|        2762|   -6.701966|   -4.855106|   -5.061101|   -6.740587|
|        2763|   -6.699371|   -4.859532|   -5.056700|   -6.740080|
|        2764|   -6.696837|   -4.864023|   -5.052355|   -6.739569|
|        2765|   -6.694364|   -4.868579|   -5.048065|   -6.739050|
|        2766|   -6.691950|   -4.873200|   -5.043830|   -6.738522|
|        2767|   -6.689595|   -4.877887|   -5.039652|   -6.737989|
|        2768|   -6.687300|   -4.882639|   -5.035531|   -6.737451|
|        2769|   -6.685062|   -4.887456|   -5.031469|   -6.736909|
|        2770|   -6.682882|   -4.892336|   -5.027467|   -6.736362|
|        2771|   -6.680759|   -4.897279|   -5.023527|   -6.735811|
|        2772|   -6.678692|   -4.902282|   -5.019650|   -6.735257|
|        2773|   -6.676680|   -4.907343|   -5.015838|   -6.734701|
|        2774|   -6.674722|   -4.912459|   -5.012090|   -6.734142|
|        2775|   -6.672819|   -4.917628|   -5.008409|   -6.733582|
|        2776|   -6.670969|   -4.922848|   -5.004795|   -6.733022|
|        2777|   -6.669171|   -4.928113|   -5.001248|   -6.732462|
|        2778|   -6.667427|   -4.933423|   -4.997768|   -6.731911|
|        2779|   -6.665734|   -4.938771|   -4.994355|   -6.731361|
|        2780|   -6.664094|   -4.944155|   -4.991009|   -6.730813|
|        2781|   -6.662506|   -4.949571|   -4.987729|   -6.730266|
|        2782|   -6.660969|   -4.955015|   -4.984517|   -6.729720|
|        2783|   -6.659485|   -4.960481|   -4.981371|   -6.729177|
|        2784|   -6.658052|   -4.965966|   -4.978292|   -6.728634|
|        2785|   -6.656670|   -4.971465|   -4.975279|   -6.728094|
|        2786|   -6.655341|   -4.976975|   -4.972332|   -6.727554|
|        2787|   -6.654062|   -4.982488|   -4.969453|   -6.727016|
|        2788|   -6.652834|   -4.988003|   -4.966641|   -6.726478|
|        2789|   -6.651657|   -4.993512|   -4.963897|   -6.725939|
|        2790|   -6.650529|   -4.999010|   -4.961222|   -6.725401|
|        2791|   -6.649450|   -5.004491|   -4.958615|   -6.724864|
|        2792|   -6.648419|   -5.009946|   -4.956078|   -6.724328|
|        2793|   -6.647436|   -5.015369|   -4.953612|   -6.723791|
|        2794|   -6.646498|   -5.020752|   -4.951216|   -6.723255|
|        2795|   -6.645604|   -5.026084|   -4.948890|   -6.722720|
|        2796|   -6.644754|   -5.031356|   -4.946635|   -6.722186|
|        2797|   -6.643945|   -5.036557|   -4.944451|   -6.721658|
|        2798|   -6.643178|   -5.041673|   -4.942335|   -6.721133|
|        2799|   -6.642449|   -5.046691|   -4.940288|   -6.720612|
|        2800|   -6.641759|   -5.051593|   -4.938310|   -6.720108|
|        2801|   -6.641107|   -5.056364|   -4.936400|   -6.719624|
|        2802|   -6.640493|   -5.060987|   -4.934557|   -6.719150|
|        2803|   -6.639915|   -5.065446|   -4.932780|   -6.718684|
|        2804|   -6.639375|   -5.069725|   -4.931070|   -6.718227|
|        2805|   -6.638872|   -5.073804|   -4.929425|   -6.717778|
|        2806|   -6.638407|   -5.077667|   -4.927846|   -6.717340|
|        2807|   -6.637981|   -5.081295|   -4.926333|   -6.716918|
|        2808|   -6.637594|   -5.084672|   -4.924884|   -6.716513|
|        2809|   -6.637248|   -5.087782|   -4.923501|   -6.716120|
|        2810|   -6.636943|   -5.090610|   -4.922184|   -6.715739|
|        2811|   -6.636682|   -5.093143|   -4.920933|   -6.715371|
|        2812|   -6.636465|   -5.095367|   -4.919750|   -6.715014|
|        2813|   -6.636294|   -5.097272|   -4.918634|   -6.714669|
|        2814|   -6.636170|   -5.098848|   -4.917585|   -6.714333|
|        2815|   -6.636096|   -5.100089|   -4.916606|   -6.714007|
|        2816|   -6.636071|   -5.100989|   -4.915694|   -6.713689|
|        2817|   -6.636098|   -5.101543|   -4.914852|   -6.713378|
|        2818|   -6.636176|   -5.101752|   -4.914077|   -6.713072|
|        2819|   -6.636307|   -5.101614|   -4.913369|   -6.712771|
|        2820|   -6.636491|   -5.101131|   -4.912726|   -6.712474|
|        2821|   -6.636728|   -5.100307|   -4.912147|   -6.712177|
|        2822|   -6.637018|   -5.099147|   -4.911630|   -6.711878|
|        2823|   -6.637361|   -5.097656|   -4.911173|   -6.711575|
|        2824|   -6.637756|   -5.095843|   -4.910773|   -6.711266|
|        2825|   -6.638204|   -5.093718|   -4.910429|   -6.710951|
|        2826|   -6.638703|   -5.091290|   -4.910137|   -6.710626|
|        2827|   -6.639253|   -5.088572|   -4.909895|   -6.710289|
|        2828|   -6.639854|   -5.085575|   -4.909702|   -6.709940|
|        2829|   -6.640504|   -5.082313|   -4.909555|   -6.709583|
|        2830|   -6.641204|   -5.078802|   -4.909453|   -6.709235|
|        2831|   -6.641954|   -5.075055|   -4.909398|   -6.708869|
|        2832|   -6.642754|   -5.071088|   -4.909387|   -6.708487|
|        2833|   -6.643605|   -5.066919|   -4.909422|   -6.708089|
|        2834|   -6.644507|   -5.062561|   -4.909507|   -6.707676|
|        2835|   -6.645461|   -5.058031|   -4.909641|   -6.707248|
|        2836|   -6.646469|   -5.053345|   -4.909829|   -6.706830|
|        2837|   -6.647532|   -5.048518|   -4.910074|   -6.706403|
|        2838|   -6.648651|   -5.043567|   -4.910360|   -6.705972|
|        2839|   -6.649827|   -5.038507|   -4.910589|   -6.705549|
|        2840|   -6.651054|   -5.033342|   -4.910854|   -6.705126|
|        2841|   -6.652338|   -5.028086|   -4.911174|   -6.704704|
|        2842|   -6.653683|   -5.022751|   -4.911562|   -6.704288|
|        2843|   -6.655092|   -5.017350|   -4.912028|   -6.703883|
|        2844|   -6.656567|   -5.011895|   -4.912581|   -6.703496|
|        2845|   -6.658113|   -5.006396|   -4.913227|   -6.703119|
|        2846|   -6.659730|   -5.000864|   -4.913970|   -6.702756|
|        2847|   -6.661420|   -4.995309|   -4.914812|   -6.702407|
|        2848|   -6.663183|   -4.989738|   -4.915754|   -6.702076|
|        2849|   -6.665021|   -4.984161|   -4.916797|   -6.701763|
|        2850|   -6.666933|   -4.978583|   -4.917939|   -6.701469|
|        2851|   -6.668920|   -4.973011|   -4.919179|   -6.701195|
|        2852|   -6.670982|   -4.967452|   -4.920515|   -6.700940|
|        2853|   -6.673119|   -4.961911|   -4.921947|   -6.700706|
|        2854|   -6.675332|   -4.956392|   -4.923456|   -6.700493|
|        2855|   -6.677618|   -4.950899|   -4.925056|   -6.700300|
|        2856|   -6.679980|   -4.945436|   -4.926748|   -6.700124|
|        2857|   -6.682417|   -4.940009|   -4.928533|   -6.699966|
|        2858|   -6.684930|   -4.934620|   -4.930411|   -6.699825|
|        2859|   -6.687519|   -4.929275|   -4.932383|   -6.699700|
|        2860|   -6.690183|   -4.923976|   -4.934448|   -6.699601|
|        2861|   -6.692924|   -4.918728|   -4.936607|   -6.699528|
|        2862|   -6.695739|   -4.913533|   -4.938857|   -6.699468|
|        2863|   -6.698630|   -4.908396|   -4.941199|   -6.699422|
|        2864|   -6.701595|   -4.903318|   -4.943630|   -6.699389|
|        2865|   -6.704634|   -4.898301|   -4.946151|   -6.699368|
|        2866|   -6.707746|   -4.893349|   -4.948760|   -6.699360|
|        2867|   -6.710930|   -4.888463|   -4.951456|   -6.699363|
|        2868|   -6.714186|   -4.883642|   -4.954238|   -6.699378|
|        2869|   -6.717512|   -4.878890|   -4.957104|   -6.699403|
|        2870|   -6.720907|   -4.874206|   -4.960051|   -6.699437|
|        2871|   -6.724370|   -4.869592|   -4.963077|   -6.699478|
|        2872|   -6.727900|   -4.865048|   -4.966180|   -6.699524|
|        2873|   -6.731496|   -4.860574|   -4.969355|   -6.699799|
|        2874|   -6.735155|   -4.856170|   -4.972600|   -6.700316|
|        2875|   -6.738879|   -4.851836|   -4.975913|   -6.700923|
|        2876|   -6.742666|   -4.847572|   -4.979290|   -6.701575|
|        2877|   -6.746516|   -4.843376|   -4.982729|   -6.702262|
|        2878|   -6.750426|   -4.839248|   -4.986229|   -6.702960|
|        2879|   -6.754398|   -4.835188|   -4.989787|   -6.703650|
|        2880|   -6.758432|   -4.831194|   -4.993401|   -6.704327|
|        2881|   -6.762527|   -4.827267|   -4.997072|   -6.705001|
|        2882|   -6.766684|   -4.823405|   -5.000799|   -6.705667|
|        2883|   -6.770904|   -4.819609|   -5.004581|   -6.706318|
|        2884|   -6.775187|   -4.815876|   -5.008419|   -6.706949|
|        2885|   -6.779535|   -4.812207|   -5.012313|   -6.707554|
|        2886|   -6.783949|   -4.808601|   -5.016264|   -6.708132|
|        2887|   -6.788430|   -4.805057|   -5.020272|   -6.708683|
|        2888|   -6.792980|   -4.801574|   -5.024338|   -6.709210|
|        2889|   -6.797601|   -4.798152|   -5.028463|   -6.709710|
|        2890|   -6.802295|   -4.794790|   -5.032649|   -6.710183|
|        2891|   -6.807065|   -4.791488|   -5.036898|   -6.710625|
|        2892|   -6.811913|   -4.788245|   -5.041210|   -6.711035|
|        2893|   -6.816841|   -4.785060|   -5.045589|   -6.711413|
|        2894|   -6.821853|   -4.781934|   -5.050036|   -6.711758|
|        2895|   -6.826952|   -4.778866|   -5.054553|   -6.712070|
|        2896|   -6.832142|   -4.775858|   -5.059143|   -6.712365|
|        2897|   -6.837424|   -4.772909|   -5.063808|   -6.712680|
|        2898|   -6.842802|   -4.770017|   -5.068550|   -6.712986|
|        2899|   -6.848281|   -4.767184|   -5.073372|   -6.713247|
|        2900|   -6.853862|   -4.764408|   -5.078275|   -6.713473|
|        2901|   -6.859548|   -4.761687|   -5.083263|   -6.713680|
|        2902|   -6.865341|   -4.759021|   -5.088337|   -6.713871|
|        2903|   -6.871242|   -4.756408|   -5.093498|   -6.714048|
|        2904|   -6.877253|   -4.753848|   -5.098749|   -6.714213|
|        2905|   -6.883375|   -4.751338|   -5.104091|   -6.714364|
|        2906|   -6.889610|   -4.748879|   -5.109526|   -6.714502|
|        2907|   -6.895958|   -4.746470|   -5.115055|   -6.714628|
|        2908|   -6.902420|   -4.744111|   -5.120680|   -6.714744|
|        2909|   -6.908999|   -4.741804|   -5.126403|   -6.714849|
|        2910|   -6.915699|   -4.739550|   -5.132226|   -6.714944|
|        2911|   -6.922523|   -4.737352|   -5.138148|   -6.715028|
|        2912|   -6.929475|   -4.735215|   -5.144172|   -6.715102|
|        2913|   -6.936561|   -4.733137|   -5.150296|   -6.715165|
|        2914|   -6.943779|   -4.731123|   -5.156519|   -6.715217|
|        2915|   -6.951129|   -4.729176|   -5.162839|   -6.715257|
|        2916|   -6.958609|   -4.727298|   -5.169252|   -6.715285|
|        2917|   -6.966221|   -4.725486|   -5.175752|   -6.715299|
|        2918|   -6.973959|   -4.723743|   -5.182334|   -6.715298|
|        2919|   -6.981823|   -4.722066|   -5.188988|   -6.715282|
|        2920|   -6.989803|   -4.720458|   -5.195706|   -6.715248|
|        2921|   -6.997896|   -4.718916|   -5.202478|   -6.715196|
|        2922|   -7.006092|   -4.717441|   -5.209290|   -6.715124|
|        2923|   -7.014383|   -4.716033|   -5.216129|   -6.715090|
|        2924|   -7.022758|   -4.714691|   -5.222981|   -6.715124|
|        2925|   -7.031200|   -4.713417|   -5.229830|   -6.715181|
|        2926|   -7.039703|   -4.712210|   -5.236660|   -6.715226|
|        2927|   -7.048249|   -4.711069|   -5.243453|   -6.715241|
|        2928|   -7.056817|   -4.709997|   -5.250189|   -6.715225|
|        2929|   -7.065397|   -4.708989|   -5.256848|   -6.715180|
|        2930|   -7.073982|   -4.708049|   -5.263384|   -6.715105|
|        2931|   -7.082524|   -4.707175|   -5.269807|   -6.714998|
|        2932|   -7.091003|   -4.706366|   -5.276093|   -6.714859|
|        2933|   -7.099389|   -4.705628|   -5.282223|   -6.714685|
|        2934|   -7.107668|   -4.704955|   -5.288175|   -6.714479|
|        2935|   -7.115799|   -4.704352|   -5.293928|   -6.714239|
|        2936|   -7.123759|   -4.703819|   -5.299461|   -6.713966|
|        2937|   -7.131517|   -4.703352|   -5.304747|   -6.713659|
|        2938|   -7.139025|   -4.702958|   -5.309771|   -6.713320|
|        2939|   -7.146267|   -4.702632|   -5.314504|   -6.712949|
|        2940|   -7.153188|   -4.702377|   -5.318930|   -6.712548|
|        2941|   -7.159761|   -4.702193|   -5.323031|   -6.712131|
|        2942|   -7.165949|   -4.702076|   -5.326782|   -6.711712|
|        2943|   -7.171704|   -4.702033|   -5.330179|   -6.711266|
|        2944|   -7.177015|   -4.702057|   -5.333201|   -6.710795|
|        2945|   -7.181825|   -4.702152|   -5.335840|   -6.710302|
|        2946|   -7.186111|   -4.702318|   -5.338093|   -6.709788|
|        2947|   -7.189859|   -4.702548|   -5.339945|   -6.709255|
|        2948|   -7.193013|   -4.702851|   -5.341409|   -6.708706|
|        2949|   -7.195588|   -4.703219|   -5.342480|   -6.708143|
|        2950|   -7.197551|   -4.703654|   -5.343161|   -6.707567|
|        2951|   -7.198892|   -4.704157|   -5.343469|   -6.706981|
|        2952|   -7.199629|   -4.704719|   -5.343398|   -6.706386|
|        2953|   -7.199726|   -4.705350|   -5.342981|   -6.705782|
|        2954|   -7.199231|   -4.706043|   -5.342217|   -6.705175|
|        2955|   -7.198139|   -4.706796|   -5.341119|   -6.704571|
|        2956|   -7.196452|   -4.707612|   -5.339717|   -6.703975|
|        2957|   -7.194219|   -4.708483|   -5.338005|   -6.703389|
|        2958|   -7.191447|   -4.709414|   -5.336033|   -6.702811|
|        2959|   -7.188164|   -4.710402|   -5.333796|   -6.702240|
|        2960|   -7.184410|   -4.711439|   -5.331295|   -6.701678|
|        2961|   -7.180200|   -4.712534|   -5.328572|   -6.701121|
|        2962|   -7.175592|   -4.713678|   -5.325634|   -6.700569|
|        2963|   -7.170593|   -4.714870|   -5.322473|   -6.700020|
|        2964|   -7.165239|   -4.716113|   -5.319123|   -6.699472|
|        2965|   -7.159581|   -4.717399|   -5.315587|   -6.698923|
|        2966|   -7.153623|   -4.718730|   -5.311885|   -6.698371|
|        2967|   -7.147406|   -4.720106|   -5.308031|   -6.697815|
|        2968|   -7.140962|   -4.721518|   -5.304029|   -6.697251|
|        2969|   -7.134299|   -4.722974|   -5.299905|   -6.696678|
|        2970|   -7.127461|   -4.724467|   -5.295672|   -6.696091|
|        2971|   -7.120467|   -4.725995|   -5.291336|   -6.695491|
|        2972|   -7.113325|   -4.727562|   -5.286921|   -6.694873|
|        2973|   -7.106070|   -4.729163|   -5.282438|   -6.694237|
|        2974|   -7.098712|   -4.730795|   -5.277897|   -6.693581|
|        2975|   -7.091263|   -4.732464|   -5.273323|   -6.692904|
|        2976|   -7.083750|   -4.734164|   -5.268723|   -6.692204|
|        2977|   -7.076177|   -4.735894|   -5.264106|   -6.691481|
|        2978|   -7.068554|   -4.737658|   -5.259490|   -6.690736|
|        2979|   -7.060903|   -4.739453|   -5.254881|   -6.689967|
|        2980|   -7.053226|   -4.741278|   -5.250286|   -6.689177|
|        2981|   -7.045532|   -4.743137|   -5.245723|   -6.688366|
|        2982|   -7.037837|   -4.745027|   -5.241197|   -6.687535|
|        2983|   -7.030145|   -4.746948|   -5.236712|   -6.686687|
|        2984|   -7.022460|   -4.748905|   -5.232282|   -6.685823|
|        2985|   -7.014794|   -4.750895|   -5.227911|   -6.684948|
|        2986|   -7.007151|   -4.752917|   -5.223600|   -6.684094|
|        2987|   -6.999533|   -4.754976|   -5.219357|   -6.683240|
|        2988|   -6.991951|   -4.757072|   -5.215190|   -6.682384|
|        2989|   -6.984412|   -4.759203|   -5.211098|   -6.681530|
|        2990|   -6.976915|   -4.761374|   -5.207088|   -6.680680|
|        2991|   -6.969469|   -4.763585|   -5.203165|   -6.679839|
|        2992|   -6.962080|   -4.765836|   -5.199328|   -6.679010|
|        2993|   -6.954749|   -4.768128|   -5.195579|   -6.678198|
|        2994|   -6.947480|   -4.770464|   -5.191924|   -6.677407|
|        2995|   -6.940279|   -4.772843|   -5.188364|   -6.676641|
|        2996|   -6.933152|   -4.775265|   -5.184900|   -6.675905|
|        2997|   -6.926100|   -4.777734|   -5.181537|   -6.675203|
|        2998|   -6.919128|   -4.780248|   -5.178277|   -6.674538|
|        2999|   -6.912241|   -4.782808|   -5.175117|   -6.673913|
|        3000|   -6.905439|   -4.785414|   -5.172057|   -6.673333|
+-----------------------------------------------------------------------+
|        File Writing Summary       |              Filename             |
+-----------------------------------------------------------------------+
|SU2 restart                        |restart_venturi_mixturedensity_30kW_fine_test.dat|
|                                   |                     (1148.01 MB/s)|
|Paraview                           |flow_venturi_mixturedensity_30kW_fine_test_00003000.vtu|
