scsub> Executing:  'cd /home/hem1dev/Codes/SU2_Github_Mark_Test/SU2/Venturi'


WARNING: CONV_CRITERIA is deprecated. SU2 will choose the criteria automatically based on the CONV_FIELD.
That is, RESIDUAL for any RMS_* BGS_* value, and CAUCHY for coefficients such as DRAG etc.


-------------------------------------------------------------------------
|    ___ _   _ ___                                                      |
|   / __| | | |_  )   Release 7.1.1 "Blackbird"                         |
|   \__ \ |_| |/ /                                                      |
|   |___/\___//___|   Suite (Computational Fluid Dynamics Code)         |
|                                                                       |
-------------------------------------------------------------------------
| SU2 Project Website: https://su2code.github.io                        |
|                                                                       |
| The SU2 Project is maintained by the SU2 Foundation                   |
| (http://su2foundation.org)                                            |
-------------------------------------------------------------------------
| Copyright 2012-2021, SU2 Contributors                                 |
|                                                                       |
| SU2 is free software; you can redistribute it and/or                  |
| modify it under the terms of the GNU Lesser General Public            |
| License as published by the Free Software Foundation; either          |
| version 2.1 of the License, or (at your option) any later version.    |
|                                                                       |
| SU2 is distributed in the hope that it will be useful,                |
| but WITHOUT ANY WARRANTY; without even the implied warranty of        |
| MERCHANTABILITY or FITNESS FOR A PARTICULAR PURPOSE. See the GNU      |
| Lesser General Public License for more details.                       |
|                                                                       |
| You should have received a copy of the GNU Lesser General Public      |
| License along with SU2. If not, see <http://www.gnu.org/licenses/>.   |
-------------------------------------------------------------------------


WARNING: CONV_CRITERIA is deprecated. SU2 will choose the criteria automatically based on the CONV_FIELD.
That is, RESIDUAL for any RMS_* BGS_* value, and CAUCHY for coefficients such as DRAG etc.


Parsing config file for zone 0


WARNING: CONV_CRITERIA is deprecated. SU2 will choose the criteria automatically based on the CONV_FIELD.
That is, RESIDUAL for any RMS_* BGS_* value, and CAUCHY for coefficients such as DRAG etc.


----------------- Physical Case Definition ( Zone 0 ) -------------------
Incompressible RANS equations.
Turbulence model: Menter's SST
Hybrid RANS/LES: No Hybrid RANS/LES
No restart solution, use the values at infinity (freestream).
Dimensional simulation.
The reference area is 1 m^2.
The semi-span will be computed using the max y(3D) value.
The reference length is 1 m.
Input mesh file name: c6_cms_venturi.cgns

--------------- Space Numerical Integration ( Zone 0 ) ------------------
Flux difference splitting (FDS) upwind scheme for the flow inviscid terms.
Second order integration in space, with slope limiter.
No slope-limiting method. 
Average of gradients with correction (viscous flow terms).
Average of gradients with correction (viscous turbulence terms).
Gradient for upwind reconstruction: inverse-distance weighted Least-Squares.
Gradient for viscous and source terms: inverse-distance weighted Least-Squares.

--------------- Time Numerical Integration  ( Zone 0 ) ------------------
Local time stepping (steady state simulation).
Euler implicit method for the flow equations.
FGMRES is used for solving the linear system.
Using a ILU(0) preconditioning.
Convergence criteria of the linear solver: 1e-08.
Max number of linear iterations: 20.
No CFL adaptation.
Courant-Friedrichs-Lewy number:      100
Euler implicit time integration for the turbulence model.

------------------ Convergence Criteria  ( Zone 0 ) ---------------------
Maximum number of solver subiterations: 50000.
Begin convergence monitoring at iteration 10.
Residual minimum value: 1e-10.
Cauchy series min. value: 1e-06.
Number of Cauchy elements: 100.
Begin windowed time average at iteration 0.

-------------------- Output Information ( Zone 0 ) ----------------------
Writing solution files every 5000 iterations.
Writing the convergence history file every 1 inner iterations.
Writing the screen convergence history every 1 inner iterations.
The tabular file format is CSV (.csv).
Convergence history file name: history_test.
Forces breakdown file name: forces_breakdown.dat.
Surface file name: surface_flow_venturi_mixturedensity_30kW_fine_test.
Volume file name: flow_venturi_mixturedensity_30kW_fine_test.
Restart file name: restart_venturi_mixturedensity_30kW_fine_test.dat.

------------- Config File Boundary Information ( Zone 0 ) ---------------
+-----------------------------------------------------------------------+
|                        Marker Type|                        Marker Name|
+-----------------------------------------------------------------------+
|                     Symmetry plane|                               axis|
+-----------------------------------------------------------------------+
|                     Inlet boundary|                          gas_inlet|
|                                   |                          air_inlet|
+-----------------------------------------------------------------------+
|                    Outlet boundary|                             outlet|
+-----------------------------------------------------------------------+
|                     Heat flux wall|            wall-component1-surface|
+-----------------------------------------------------------------------+

-------------------- Output Preprocessing ( Zone 0 ) --------------------
Screen output fields: INNER_ITER, RMS_PRESSURE, RMS_VELOCITY-X, RMS_VELOCITY-Y, RMS_PASSIVE_SCALAR
History output group(s): RMS_RES, AERO_COEFF, FLOW_COEFF
Convergence field(s): RMS_PRESSURE, RMS_VELOCITY-X, RMS_VELOCITY-Y, RMS_TKE
Warning: No (valid) fields chosen for time convergence monitoring. Time convergence monitoring inactive.
  Info: Ignoring the following volume output fields/groups:
  SOURCE, LOOKUP
Volume output fields: DENSITY, SOLUTION, PRIMITIVE, RESIDUAL, COORDINATES

------------------- Geometry Preprocessing ( Zone 0 ) -------------------
Reading the CGNS file: c6_cms_venturi.cgns.
CGNS file contains 1 database(s).
Database 1, Base:  cell dimension of 2, physical dimension of 2.
1 total zone(s).
Zone 1, Zone: 292948 total vertices, 295883 total elements.
Loading CoordinateX values into linear partitions.
Loading CoordinateY values into linear partitions.
Distributing connectivity across all ranks.
Number of connectivity sections is 6.
Section gas_inlet contains 51 elements of type Mixed.
Section air_inlet contains 150 elements of type Mixed.
Section outlet contains 157 elements of type Mixed.
Section axis contains 1721 elements of type Mixed.
Section component1-surface contains 290183 elements of type Mixed.
Section wall-component1-surface contains 3621 elements of type Mixed.
Loading surface section gas_inlet from file.
Loading surface section air_inlet from file.
Loading surface section outlet from file.
Loading surface section axis from file.
Loading volume section component1-surface from file.
Loading surface section wall-component1-surface from file.
Two dimensional problem.
292948 grid points before partitioning.
290183 volume elements before partitioning.
5 surface markers.
51 boundary elements in index 0 (Marker = gas_inlet).
150 boundary elements in index 1 (Marker = air_inlet).
157 boundary elements in index 2 (Marker = outlet).
1721 boundary elements in index 3 (Marker = axis).
3621 boundary elements in index 4 (Marker = wall-component1-surface).
Executing the partitioning functions.
Building the graph adjacency structure.
Calling ParMETIS... graph partitioning complete (13663 edge cuts).
Distributing ParMETIS coloring.
Rebalancing vertices.
Rebalancing volume element connectivity.
Rebalancing markers and surface elements.
320620 vertices including ghost points. 
303882 interior elements including halo cells. 
174 triangles.
303708 quadrilaterals.
Establishing MPI communication patterns.
Setting point connectivity.
Renumbering points (Reverse Cuthill McKee Ordering).
Recomputing point connectivity.
Setting element connectivity.
Checking the numerical grid orientation.
All volume elements are correctly orientend.
All surface elements are correctly orientend.
Identifying edges and vertices.
Setting the control volume structure.
Area of the computational grid: 0.00286005.
Searching for the closest normal neighbors to the surfaces.
Storing a mapping from global to local point index.
Compute the surface curvature.
Max K: 25766.3. Mean K: 66.0693. Standard deviation K: 1007.76.
Checking for periodicity.
Computing mesh quality statistics for the dual control volumes.
+--------------------------------------------------------------+
|           Mesh Quality Metric|        Minimum|        Maximum|
+--------------------------------------------------------------+
|    Orthogonality Angle (deg.)|        45.2115|             90|
|     CV Face Area Aspect Ratio|              1|        10.3208|
|           CV Sub-Volume Ratio|              1|        9.85984|
+--------------------------------------------------------------+
Finding max control volume width.
Communicating number of neighbors.
Wetted area = 0 m^2.
Area projection in the x-plane = 0 m, y-plane = 0 m.
Max. coordinate in the x-direction = -1e+10 m, y-direction = -1e+10 m.
Min. coordinate in the x-direction = 1e+10 m, y-direction = 1e+10 m.
Checking if Euler & Symmetry markers are straight/plane:
Boundary marker axis is a single straight.
Computing wall distances.

-------------------- Solver Preprocessing ( Zone 0 ) --------------------
Incompressible flow: rho_ref, vel_ref, temp_ref, p_ref
are set to 1.0 in order to perform a dimensional calculation.
Force coefficients computed using initial values.
The reference area for force coeffs. is 1 m^2.
The reference length for force coeffs. is 1 m.
The pressure is decomposed into thermodynamic and dynamic components.
The initial value of the dynamic pressure is 0.
Mach number: 0, computed using fluid speed of sound.
For external flows, the initial state is imposed at the far-field.
Angle of attack (deg): 0, computed using the initial velocity.
Side slip angle (deg): 0, computed using the initial velocity.
Reynolds number per meter: 65290.8, computed using initial values.
Reynolds number is a byproduct of inputs only (not used internally).
SI units only. The grid should be dimensional (meters).
Energy equation is active and coupled for variable density.

-- Models:
+------------------------------------------------------------------------------+
|          Viscosity Model|        Conductivity Model|              Fluid Model|
+------------------------------------------------------------------------------+
|               SUTHERLAND|          CONSTANT_PRANDTL|+------------------------------------------------------------------------------+
-- Fluid properties:
+------------------------------------------------------------------------------+
|                  Name|    Dim. value|    Ref. value|      Unit|Non-dim. value|
+------------------------------------------------------------------------------+
|        Ref. Viscosity|     1.118e-05|             1|   N.s/m^2|     1.118e-05|
|      Sutherland Temp.|           300|             1|         K|           300|
|     Sutherland Const.|        187.78|             1|         K|        187.78|
+------------------------------------------------------------------------------+
|        Prandtl (Lam.)|             -|             -|         -|          0.72|
|       Prandtl (Turb.)|             -|             -|         -|           0.9|
+------------------------------------------------------------------------------+
-- Initial and free-stream conditions:
+------------------------------------------------------------------------------+
|                  Name|    Dim. value|    Ref. value|      Unit|Non-dim. value|
+------------------------------------------------------------------------------+
|      Dynamic Pressure|             0|             1|        Pa|             0|
|        Total Pressure|      0.585985|             1|        Pa|      0.585985|
|               Density|       1.17197|             1|    kg/m^3|       1.17197|
|           Temperature|           300|             1|         K|           300|
|            Velocity-X|             1|             1|       m/s|             1|
|            Velocity-Y|             0|             1|       m/s|             0|
|    Velocity Magnitude|             1|             1|       m/s|             1|
+------------------------------------------------------------------------------+
|             Viscosity|     1.795e-05|             1|   N.s/m^2|     1.795e-05|
|          Conductivity|             -|             1|   W/m^2.K|             -|
|     Turb. Kin. Energy|       0.00375|             1|   m^2/s^2|       0.00375|
|     Spec. Dissipation|       24.4841|             1|       1/s|       24.4841|
+------------------------------------------------------------------------------+
|           Mach Number|             -|             -|         -|             0|
|       Reynolds Number|             -|             -|         -|       65290.8|
+------------------------------------------------------------------------------+
Initialize Jacobian structure (Navier-Stokes). MG level: 0.
Initialize Jacobian structure (passive scalar model).
Initialize Jacobian structure (SST model).

------------------- Numerics Preprocessing ( Zone 0 ) -------------------

----------------- Integration Preprocessing ( Zone 0 ) ------------------

------------------- Iteration Preprocessing ( Zone 0 ) ------------------
Euler/Navier-Stokes/RANS fluid iteration.

------------------------------ Begin Solver -----------------------------

Simulation Run using the Single-zone Driver
Initializing passive scalar (initial condition).
initialization = 1 1
+----------------------------------------------------------------+
|  Inner_Iter|      rms[P]|      rms[U]|      rms[V]|      rms[c]|
+----------------------------------------------------------------+
|           0|   -5.786789|   -6.251760|   -5.745296|   -5.917756|
|           1|   -5.740947|   -5.120715|   -5.432013|   -5.686544|
|           2|   -6.092040|   -5.618749|   -5.659828|   -5.996452|
|           3|   -6.242065|   -5.895950|   -5.604514|   -6.204964|
|           4|   -6.354836|   -6.028068|   -5.612893|   -6.258034|
|           5|   -6.348325|   -6.137460|   -5.659404|   -6.284646|
|           6|   -6.390832|   -6.157336|   -5.698531|   -6.300597|
|           7|   -6.403909|   -6.176094|   -5.849707|   -6.349631|
|           8|   -6.448336|   -6.182497|   -6.144986|   -6.431760|
|           9|   -6.514067|   -6.166482|   -6.215656|   -6.538245|
|          10|   -6.572563|   -6.151412|   -6.057760|   -6.617521|
|          11|   -6.564176|   -6.134420|   -5.914233|   -6.648743|
|          12|   -6.510944|   -6.107552|   -5.788392|   -6.646922|
|          13|   -6.475630|   -6.073183|   -5.712066|   -6.623917|
|          14|   -6.470770|   -6.040083|   -5.670400|   -6.592894|
|          15|   -6.494908|   -6.012132|   -5.678585|   -6.563519|
|          16|   -6.523496|   -5.987558|   -5.709807|   -6.540007|
|          17|   -6.546202|   -5.963578|   -5.742922|   -6.523780|
|          18|   -6.562424|   -5.939730|   -5.765622|   -6.511408|
|          19|   -6.572725|   -5.916761|   -5.772537|   -6.500705|
|          20|   -6.577842|   -5.894613|   -5.765054|   -6.491469|
|          21|   -6.580610|   -5.873266|   -5.750368|   -6.482392|
|          22|   -6.582079|   -5.852007|   -5.732736|   -6.471895|
|          23|   -6.582601|   -5.830424|   -5.714732|   -6.460219|
|          24|   -6.582786|   -5.808798|   -5.697681|   -6.447549|
|          25|   -6.583010|   -5.787712|   -5.681870|   -6.434078|
|          26|   -6.583122|   -5.767462|   -5.666304|   -6.420191|
|          27|   -6.583489|   -5.748093|   -5.652588|   -6.405938|
|          28|   -6.583816|   -5.729533|   -5.640631|   -6.391515|
|          29|   -6.584289|   -5.711731|   -5.629804|   -6.377162|
|          30|   -6.585334|   -5.694667|   -5.619951|   -6.362944|
|          31|   -6.587003|   -5.678279|   -5.611549|   -6.348940|
|          32|   -6.589175|   -5.662559|   -5.604872|   -6.335131|
|          33|   -6.591422|   -5.647456|   -5.599321|   -6.321638|
|          34|   -6.593964|   -5.633086|   -5.594883|   -6.308400|
|          35|   -6.596342|   -5.619269|   -5.591355|   -6.295534|
|          36|   -6.598520|   -5.606105|   -5.588461|   -6.282976|
|          37|   -6.600090|   -5.593520|   -5.585697|   -6.270759|
|          38|   -6.601109|   -5.581486|   -5.583032|   -6.258827|
|          39|   -6.601566|   -5.569957|   -5.579734|   -6.247156|
|          40|   -6.601512|   -5.558855|   -5.573239|   -6.235854|
|          41|   -6.601098|   -5.548070|   -5.566661|   -6.224891|
|          42|   -6.600204|   -5.537549|   -5.559841|   -6.214234|
|          43|   -6.599193|   -5.527267|   -5.553070|   -6.203854|
|          44|   -6.598112|   -5.517182|   -5.546634|   -6.193794|
|          45|   -6.597043|   -5.507274|   -5.540785|   -6.184011|
|          46|   -6.595877|   -5.497493|   -5.535470|   -6.174556|
|          47|   -6.594578|   -5.487826|   -5.530756|   -6.165390|
|          48|   -6.593012|   -5.478274|   -5.526075|   -6.156524|
|          49|   -6.591313|   -5.468840|   -5.521559|   -6.147947|
|          50|   -6.589489|   -5.459534|   -5.517411|   -6.139688|
|          51|   -6.587620|   -5.450379|   -5.513723|   -6.131677|
|          52|   -6.585863|   -5.441410|   -5.510650|   -6.123927|
|          53|   -6.584148|   -5.432631|   -5.508187|   -6.116478|
|          54|   -6.582435|   -5.424082|   -5.506301|   -6.109318|
|          55|   -6.580683|   -5.415751|   -5.504878|   -6.102409|
|          56|   -6.578955|   -5.407736|   -5.503428|   -6.095706|
|          57|   -6.577350|   -5.399971|   -5.502052|   -6.089230|
|          58|   -6.575663|   -5.392423|   -5.500748|   -6.083014|
|          59|   -6.573927|   -5.385114|   -5.499490|   -6.077024|
|          60|   -6.572188|   -5.378080|   -5.498292|   -6.071256|
|          61|   -6.570440|   -5.371287|   -5.497122|   -6.065722|
|          62|   -6.568602|   -5.364759|   -5.495953|   -6.060389|
|          63|   -6.566679|   -5.358483|   -5.494712|   -6.055213|
|          64|   -6.564713|   -5.352472|   -5.493375|   -6.050150|
|          65|   -6.562765|   -5.346714|   -5.491894|   -6.045194|
|          66|   -6.560788|   -5.341164|   -5.490305|   -6.040392|
|          67|   -6.558711|   -5.335816|   -5.488663|   -6.035757|
|          68|   -6.556571|   -5.330712|   -5.486960|   -6.031269|
|          69|   -6.554469|   -5.325888|   -5.485363|   -6.026910|
|          70|   -6.552280|   -5.321278|   -5.483572|   -6.022689|
|          71|   -6.550061|   -5.316880|   -5.481797|   -6.018606|
|          72|   -6.547801|   -5.312654|   -5.479971|   -6.014650|
|          73|   -6.545653|   -5.308599|   -5.478110|   -6.010784|
|          74|   -6.543484|   -5.304624|   -5.476193|   -6.007043|
|          75|   -6.541364|   -5.300694|   -5.474402|   -6.003449|
|          76|   -6.539223|   -5.296733|   -5.472712|   -5.999994|
|          77|   -6.537160|   -5.292700|   -5.471313|   -5.996643|
|          78|   -6.535131|   -5.288489|   -5.470048|   -5.993398|
|          79|   -6.533189|   -5.284044|   -5.469132|   -5.990258|
|          80|   -6.531358|   -5.279349|   -5.468739|   -5.987216|
|          81|   -6.529610|   -5.274387|   -5.468690|   -5.984244|
|          82|   -6.528043|   -5.269125|   -5.469255|   -5.981366|
|          83|   -6.526589|   -5.263594|   -5.470295|   -5.978611|
|          84|   -6.525268|   -5.257881|   -5.471899|   -5.975964|
|          85|   -6.524137|   -5.252085|   -5.474236|   -5.973399|
|          86|   -6.523124|   -5.246285|   -5.477041|   -5.970907|
|          87|   -6.522326|   -5.240585|   -5.480460|   -5.968512|
|          88|   -6.521736|   -5.235076|   -5.484383|   -5.966220|
|          89|   -6.521369|   -5.229768|   -5.488813|   -5.964016|
|          90|   -6.521240|   -5.224589|   -5.493711|   -5.961865|
|          91|   -6.521296|   -5.219543|   -5.499038|   -5.959771|
|          92|   -6.521548|   -5.214600|   -5.504786|   -5.957734|
|          93|   -6.521988|   -5.209765|   -5.511001|   -5.955765|
|          94|   -6.522492|   -5.205179|   -5.517486|   -5.953878|
|          95|   -6.523112|   -5.200930|   -5.524431|   -5.952088|
|          96|   -6.523793|   -5.197008|   -5.531444|   -5.950401|
|          97|   -6.524688|   -5.193314|   -5.538964|   -5.948798|
|          98|   -6.525547|   -5.189753|   -5.545716|   -5.947242|
|          99|   -6.526707|   -5.186328|   -5.552723|   -5.945695|
|         100|   -6.528010|   -5.183136|   -5.559890|   -5.944164|
|         101|   -6.529359|   -5.180134|   -5.567129|   -5.942672|
|         102|   -6.530664|   -5.177451|   -5.574570|   -5.941235|
|         103|   -6.531921|   -5.175060|   -5.581821|   -5.939872|
|         104|   -6.533268|   -5.172738|   -5.589210|   -5.938606|
|         105|   -6.534512|   -5.170629|   -5.596066|   -5.937436|
|         106|   -6.535624|   -5.168749|   -5.602308|   -5.936322|
|         107|   -6.536865|   -5.166954|   -5.608175|   -5.935232|
|         108|   -6.538142|   -5.165325|   -5.614152|   -5.934155|
|         109|   -6.539458|   -5.163887|   -5.619917|   -5.933119|
|         110|   -6.540549|   -5.162604|   -5.624934|   -5.932159|
|         111|   -6.541655|   -5.161510|   -5.630041|   -5.931252|
|         112|   -6.542576|   -5.160556|   -5.633839|   -5.930422|
|         113|   -6.543455|   -5.159622|   -5.636712|   -5.929659|
|         114|   -6.544240|   -5.158878|   -5.638669|   -5.928931|
|         115|   -6.544961|   -5.158274|   -5.640217|   -5.928215|
|         116|   -6.545514|   -5.157774|   -5.640834|   -5.927490|
|         117|   -6.545904|   -5.157362|   -5.640557|   -5.926785|
|         118|   -6.546083|   -5.157064|   -5.639297|   -5.926117|
|         119|   -6.546121|   -5.156761|   -5.636957|   -5.925504|
|         120|   -6.545937|   -5.156444|   -5.633684|   -5.924934|
|         121|   -6.545460|   -5.156230|   -5.629513|   -5.924399|
|         122|   -6.544865|   -5.156120|   -5.624739|   -5.923867|
|         123|   -6.544077|   -5.156009|   -5.619657|   -5.923317|
|         124|   -6.543057|   -5.156078|   -5.614343|   -5.922715|
|         125|   -6.541947|   -5.156167|   -5.608656|   -5.922090|
|         126|   -6.540622|   -5.156339|   -5.602589|   -5.921457|
|         127|   -6.539135|   -5.156577|   -5.595792|   -5.920818|
|         128|   -6.537445|   -5.156873|   -5.588169|   -5.920162|
|         129|   -6.535460|   -5.157227|   -5.579432|   -5.919490|
|         130|   -6.533094|   -5.157634|   -5.569489|   -5.918798|
|         131|   -6.530528|   -5.158011|   -5.559082|   -5.918060|
|         132|   -6.527764|   -5.158243|   -5.549515|   -5.917262|
|         133|   -6.524828|   -5.158294|   -5.541851|   -5.916404|
|         134|   -6.521730|   -5.158402|   -5.535940|   -5.915517|
|         135|   -6.518462|   -5.158724|   -5.531040|   -5.914609|
|         136|   -6.515089|   -5.159336|   -5.525839|   -5.913684|
|         137|   -6.511595|   -5.160110|   -5.520032|   -5.912753|
|         138|   -6.507955|   -5.160992|   -5.514032|   -5.911809|
|         139|   -6.504208|   -5.161808|   -5.507916|   -5.910831|
|         140|   -6.500430|   -5.162397|   -5.501910|   -5.909771|
|         141|   -6.496566|   -5.162874|   -5.495944|   -5.908601|
|         142|   -6.492650|   -5.163263|   -5.489997|   -5.907304|
|         143|   -6.488619|   -5.163574|   -5.483938|   -5.905869|
|         144|   -6.484402|   -5.163834|   -5.477952|   -5.904261|
|         145|   -6.479984|   -5.164048|   -5.472215|   -5.902472|
|         146|   -6.475252|   -5.164186|   -5.466574|   -5.900574|
|         147|   -6.470073|   -5.164276|   -5.460872|   -5.898646|
|         148|   -6.464630|   -5.164338|   -5.454393|   -5.896766|
|         149|   -6.459421|   -5.164289|   -5.447506|   -5.894982|
|         150|   -6.454545|   -5.164024|   -5.440134|   -5.893393|
|         151|   -6.450212|   -5.163372|   -5.431693|   -5.891940|
|         152|   -6.446938|   -5.162239|   -5.422943|   -5.890304|
|         153|   -6.444158|   -5.160714|   -5.414095|   -5.888178|
|         154|   -6.440879|   -5.159020|   -5.405549|   -5.885450|
|         155|   -6.436574|   -5.157312|   -5.398017|   -5.882333|
|         156|   -6.431445|   -5.155526|   -5.391272|   -5.879196|
|         157|   -6.426538|   -5.153528|   -5.384865|   -5.876365|
|         158|   -6.422348|   -5.151660|   -5.379690|   -5.874271|
|         159|   -6.418586|   -5.150075|   -5.375276|   -5.873075|
|         160|   -6.415596|   -5.148657|   -5.371314|   -5.872424|
|         161|   -6.413720|   -5.147459|   -5.368604|   -5.872014|
|         162|   -6.412754|   -5.146433|   -5.366683|   -5.871838|
|         163|   -6.412181|   -5.145427|   -5.364610|   -5.871846|
|         164|   -6.411850|   -5.144714|   -5.362262|   -5.871829|
|         165|   -6.411821|   -5.144405|   -5.359873|   -5.871612|
|         166|   -6.411951|   -5.144180|   -5.357440|   -5.871164|
|         167|   -6.411939|   -5.143726|   -5.354865|   -5.870551|
|         168|   -6.411745|   -5.143012|   -5.352249|   -5.869839|
|         169|   -6.411430|   -5.142112|   -5.349724|   -5.869066|
|         170|   -6.410968|   -5.141084|   -5.347327|   -5.868232|
|         171|   -6.410505|   -5.140019|   -5.345105|   -5.867356|
|         172|   -6.410017|   -5.138843|   -5.342996|   -5.866478|
|         173|   -6.409559|   -5.137556|   -5.341051|   -5.865596|
|         174|   -6.409186|   -5.136196|   -5.339435|   -5.864730|
|         175|   -6.408852|   -5.134799|   -5.338118|   -5.863888|
|         176|   -6.408585|   -5.133403|   -5.337003|   -5.863076|
|         177|   -6.408369|   -5.131931|   -5.336041|   -5.862268|
|         178|   -6.408285|   -5.130378|   -5.335217|   -5.861483|
|         179|   -6.408427|   -5.128786|   -5.334805|   -5.860750|
|         180|   -6.408677|   -5.127160|   -5.334617|   -5.860079|
|         181|   -6.408847|   -5.125397|   -5.333691|   -5.859429|
|         182|   -6.409175|   -5.123431|   -5.332506|   -5.858798|
|         183|   -6.409636|   -5.121460|   -5.332029|   -5.858179|
|         184|   -6.410062|   -5.119810|   -5.332503|   -5.857571|
|         185|   -6.410517|   -5.118448|   -5.333300|   -5.857001|
|         186|   -6.411083|   -5.116937|   -5.333884|   -5.856498|
|         187|   -6.412009|   -5.115466|   -5.334663|   -5.856040|
|         188|   -6.413122|   -5.114214|   -5.335991|   -5.855585|
|         189|   -6.414479|   -5.113219|   -5.337492|   -5.855138|
|         190|   -6.415819|   -5.112059|   -5.338726|   -5.854658|
|         191|   -6.417064|   -5.110427|   -5.339798|   -5.854165|
|         192|   -6.418129|   -5.108524|   -5.341364|   -5.853697|
|         193|   -6.418877|   -5.106610|   -5.340003|   -5.853275|
|         194|   -6.420782|   -5.104804|   -5.338882|   -5.852660|
|         195|   -6.423242|   -5.102979|   -5.337298|   -5.851980|
|         196|   -6.425370|   -5.101004|   -5.336447|   -5.851248|
|         197|   -6.427144|   -5.098962|   -5.335784|   -5.850509|
|         198|   -6.428869|   -5.097054|   -5.335482|   -5.849758|
|         199|   -6.430873|   -5.095385|   -5.335639|   -5.849003|
|         200|   -6.432799|   -5.093725|   -5.335758|   -5.848242|
|         201|   -6.434708|   -5.092014|   -5.335903|   -5.847496|
|         202|   -6.436528|   -5.090244|   -5.335849|   -5.846775|
|         203|   -6.438161|   -5.088394|   -5.335573|   -5.846070|
|         204|   -6.439741|   -5.086477|   -5.335042|   -5.845381|
|         205|   -6.441259|   -5.084499|   -5.334165|   -5.844685|
|         206|   -6.442755|   -5.082485|   -5.333206|   -5.843965|
|         207|   -6.444328|   -5.080507|   -5.332307|   -5.843248|
|         208|   -6.445864|   -5.078558|   -5.331291|   -5.842533|
|         209|   -6.447412|   -5.076616|   -5.330213|   -5.841834|
|         210|   -6.449056|   -5.074710|   -5.329300|   -5.841182|
|         211|   -6.450626|   -5.072814|   -5.328223|   -5.840555|
|         212|   -6.452180|   -5.070899|   -5.326994|   -5.839970|
|         213|   -6.453751|   -5.069007|   -5.325893|   -5.839391|
|         214|   -6.455308|   -5.067086|   -5.324478|   -5.838823|
|         215|   -6.456807|   -5.065119|   -5.322981|   -5.838223|
|         216|   -6.458459|   -5.063160|   -5.321666|   -5.837616|
|         217|   -6.460043|   -5.061150|   -5.320065|   -5.837004|
|         218|   -6.461650|   -5.059118|   -5.318345|   -5.836400|
|         219|   -6.463374|   -5.057109|   -5.316912|   -5.835826|
|         220|   -6.465006|   -5.055091|   -5.315103|   -5.835293|
|         221|   -6.466696|   -5.053110|   -5.313514|   -5.834800|
|         222|   -6.468275|   -5.051112|   -5.311717|   -5.834321|
|         223|   -6.469918|   -5.049128|   -5.309927|   -5.833852|
|         224|   -6.471611|   -5.047174|   -5.308164|   -5.833382|
|         225|   -6.473306|   -5.045218|   -5.306369|   -5.832901|
|         226|   -6.475043|   -5.043265|   -5.304551|   -5.832420|
|         227|   -6.476815|   -5.041334|   -5.302762|   -5.831954|
|         228|   -6.478568|   -5.039415|   -5.300845|   -5.831518|
|         229|   -6.480318|   -5.037491|   -5.298931|   -5.831099|
|         230|   -6.482065|   -5.035586|   -5.296896|   -5.830711|
|         231|   -6.483844|   -5.033706|   -5.294876|   -5.830355|
|         232|   -6.485576|   -5.031868|   -5.292748|   -5.830037|
|         233|   -6.487269|   -5.030033|   -5.290687|   -5.829748|
|         234|   -6.488975|   -5.028287|   -5.288562|   -5.829486|
|         235|   -6.490739|   -5.026613|   -5.286552|   -5.829231|
|         236|   -6.492524|   -5.024979|   -5.284524|   -5.828978|
|         237|   -6.494325|   -5.023334|   -5.282627|   -5.828732|
|         238|   -6.496170|   -5.021754|   -5.280716|   -5.828531|
|         239|   -6.498031|   -5.020197|   -5.279013|   -5.828376|
|         240|   -6.499880|   -5.018658|   -5.277200|   -5.828288|
|         241|   -6.501682|   -5.017099|   -5.275374|   -5.828260|
|         242|   -6.503517|   -5.015640|   -5.273561|   -5.828294|
|         243|   -6.505321|   -5.014268|   -5.271822|   -5.828370|
|         244|   -6.507133|   -5.012995|   -5.270109|   -5.828480|
|         245|   -6.508963|   -5.011815|   -5.268480|   -5.828618|
|         246|   -6.510848|   -5.010686|   -5.266997|   -5.828787|
|         247|   -6.512831|   -5.009653|   -5.265678|   -5.828994|
|         248|   -6.514865|   -5.008673|   -5.264376|   -5.829241|
|         249|   -6.516913|   -5.007684|   -5.263155|   -5.829530|
|         250|   -6.518943|   -5.006771|   -5.262089|   -5.829875|
|         251|   -6.520974|   -5.005956|   -5.261229|   -5.830268|
|         252|   -6.522956|   -5.005179|   -5.260619|   -5.830708|
|         253|   -6.525158|   -5.004628|   -5.260057|   -5.831208|
|         254|   -6.527214|   -5.004022|   -5.259453|   -5.831743|
|         255|   -6.529307|   -5.003393|   -5.258953|   -5.832311|
|         256|   -6.531291|   -5.002719|   -5.258580|   -5.832930|
|         257|   -6.533479|   -5.002068|   -5.258460|   -5.833580|
|         258|   -6.535607|   -5.001443|   -5.258067|   -5.834287|
|         259|   -6.537914|   -5.000907|   -5.258328|   -5.835034|
|         260|   -6.540368|   -5.000585|   -5.258637|   -5.835838|
|         261|   -6.542925|   -5.000417|   -5.259137|   -5.836700|
|         262|   -6.545783|   -5.000563|   -5.259892|   -5.837633|
|         263|   -6.548549|   -5.000834|   -5.260780|   -5.838635|
|         264|   -6.551393|   -5.001175|   -5.261956|   -5.839715|
|         265|   -6.554088|   -5.001497|   -5.263016|   -5.840838|
|         266|   -6.556821|   -5.001814|   -5.264465|   -5.841983|
|         267|   -6.559630|   -5.002104|   -5.265889|   -5.843144|
|         268|   -6.562415|   -5.002370|   -5.267462|   -5.844351|
|         269|   -6.565094|   -5.002515|   -5.269257|   -5.845601|
|         270|   -6.567860|   -5.002559|   -5.271248|   -5.846888|
|         271|   -6.570778|   -5.002530|   -5.273463|   -5.848189|
|         272|   -6.573832|   -5.002477|   -5.275939|   -5.849506|
|         273|   -6.576854|   -5.002435|   -5.278660|   -5.850846|
|         274|   -6.579954|   -5.002512|   -5.281541|   -5.852232|
|         275|   -6.583089|   -5.002862|   -5.284471|   -5.853663|
|         276|   -6.586301|   -5.003535|   -5.287398|   -5.855133|
|         277|   -6.589529|   -5.004382|   -5.290518|   -5.856642|
|         278|   -6.592796|   -5.005262|   -5.294016|   -5.858167|
|         279|   -6.596031|   -5.006119|   -5.297772|   -5.859717|
|         280|   -6.599251|   -5.006869|   -5.301762|   -5.861291|
|         281|   -6.602420|   -5.007596|   -5.305818|   -5.862898|
|         282|   -6.605601|   -5.008368|   -5.309880|   -5.864546|
|         283|   -6.608736|   -5.009187|   -5.313968|   -5.866223|
|         284|   -6.611927|   -5.010085|   -5.318011|   -5.867935|
|         285|   -6.615147|   -5.011071|   -5.322081|   -5.869672|
|         286|   -6.618446|   -5.012106|   -5.326214|   -5.871443|
|         287|   -6.621761|   -5.013222|   -5.330355|   -5.873254|
|         288|   -6.625033|   -5.014421|   -5.334497|   -5.875096|
|         289|   -6.628372|   -5.015648|   -5.338745|   -5.876966|
|         290|   -6.631695|   -5.016893|   -5.343088|   -5.878867|
|         291|   -6.634917|   -5.018186|   -5.347303|   -5.880791|
|         292|   -6.638121|   -5.019509|   -5.351456|   -5.882745|
|         293|   -6.641268|   -5.020839|   -5.355583|   -5.884722|
|         294|   -6.644309|   -5.022207|   -5.359558|   -5.886711|
|         295|   -6.647399|   -5.023548|   -5.363625|   -5.888720|
|         296|   -6.650381|   -5.024927|   -5.367519|   -5.890744|
|         297|   -6.653345|   -5.026337|   -5.371362|   -5.892777|
|         298|   -6.656273|   -5.027772|   -5.375141|   -5.894815|
|         299|   -6.659218|   -5.029208|   -5.378935|   -5.896865|
|         300|   -6.662164|   -5.030685|   -5.382625|   -5.898925|
|         301|   -6.665066|   -5.032194|   -5.386218|   -5.901003|
|         302|   -6.667985|   -5.033714|   -5.389792|   -5.903111|
|         303|   -6.670888|   -5.035232|   -5.393424|   -5.905260|
|         304|   -6.673733|   -5.036799|   -5.396941|   -5.907448|
|         305|   -6.676570|   -5.038384|   -5.400517|   -5.909670|
|         306|   -6.679347|   -5.039983|   -5.404080|   -5.911917|
|         307|   -6.682199|   -5.041579|   -5.407825|   -5.914195|
|         308|   -6.685041|   -5.043195|   -5.411579|   -5.916515|
|         309|   -6.687859|   -5.044878|   -5.415292|   -5.918879|
|         310|   -6.690634|   -5.046611|   -5.418991|   -5.921286|
|         311|   -6.693415|   -5.048351|   -5.422888|   -5.923735|
|         312|   -6.696153|   -5.050127|   -5.426781|   -5.926227|
|         313|   -6.698884|   -5.051948|   -5.430713|   -5.928755|
|         314|   -6.701623|   -5.053801|   -5.434677|   -5.931316|
|         315|   -6.704328|   -5.055702|   -5.438564|   -5.933914|
|         316|   -6.706989|   -5.057642|   -5.442366|   -5.936548|
|         317|   -6.709626|   -5.059597|   -5.446186|   -5.939222|
|         318|   -6.712211|   -5.061541|   -5.450084|   -5.941932|
|         319|   -6.714809|   -5.063550|   -5.453859|   -5.944676|
|         320|   -6.717352|   -5.065592|   -5.457457|   -5.947469|
|         321|   -6.719854|   -5.067689|   -5.460966|   -5.950319|
|         322|   -6.722250|   -5.069851|   -5.464261|   -5.953231|
|         323|   -6.724590|   -5.072061|   -5.467463|   -5.956193|
|         324|   -6.726838|   -5.074297|   -5.470632|   -5.959206|
|         325|   -6.729014|   -5.076589|   -5.473752|   -5.962261|
|         326|   -6.731089|   -5.078941|   -5.476692|   -5.965349|
|         327|   -6.733071|   -5.081354|   -5.479538|   -5.968460|
|         328|   -6.734987|   -5.083825|   -5.482266|   -5.971597|
|         329|   -6.736852|   -5.086373|   -5.484846|   -5.974769|
|         330|   -6.738657|   -5.088995|   -5.487180|   -5.977975|
|         331|   -6.740469|   -5.091699|   -5.489411|   -5.981219|
|         332|   -6.742185|   -5.094491|   -5.491493|   -5.984499|
|         333|   -6.743771|   -5.097342|   -5.493454|   -5.987805|
|         334|   -6.745266|   -5.100295|   -5.495281|   -5.991113|
|         335|   -6.746585|   -5.103315|   -5.496761|   -5.994432|
|         336|   -6.747810|   -5.106370|   -5.498206|   -5.997777|
|         337|   -6.748914|   -5.109493|   -5.499495|   -6.001139|
|         338|   -6.749821|   -5.112670|   -5.500496|   -6.004508|
|         339|   -6.750603|   -5.115895|   -5.501327|   -6.007908|
|         340|   -6.751194|   -5.119152|   -5.501957|   -6.011326|
|         341|   -6.751618|   -5.122449|   -5.502392|   -6.014747|
|         342|   -6.751902|   -5.125800|   -5.502598|   -6.018176|
|         343|   -6.751974|   -5.129187|   -5.502561|   -6.021643|
|         344|   -6.751883|   -5.132581|   -5.502422|   -6.025090|
|         345|   -6.751566|   -5.135967|   -5.502165|   -6.028532|
|         346|   -6.751116|   -5.139378|   -5.501810|   -6.032004|
|         347|   -6.750392|   -5.142793|   -5.501212|   -6.035490|
|         348|   -6.749493|   -5.146177|   -5.500566|   -6.038934|
|         349|   -6.748397|   -5.149540|   -5.499858|   -6.042373|
|         350|   -6.747092|   -5.152892|   -5.499088|   -6.045848|
|         351|   -6.745561|   -5.156225|   -5.498134|   -6.049291|
|         352|   -6.743798|   -5.159519|   -5.497121|   -6.052703|
|         353|   -6.741850|   -5.162783|   -5.496058|   -6.056019|
|         354|   -6.739761|   -5.166037|   -5.495007|   -6.059251|
|         355|   -6.737414|   -5.169270|   -5.493786|   -6.062524|
|         356|   -6.734862|   -5.172443|   -5.492492|   -6.065736|
|         357|   -6.732199|   -5.175568|   -5.491257|   -6.068865|
|         358|   -6.729371|   -5.178640|   -5.490032|   -6.071846|
|         359|   -6.726316|   -5.181644|   -5.488721|   -6.074693|
|         360|   -6.722994|   -5.184553|   -5.487325|   -6.077489|
|         361|   -6.719565|   -5.187382|   -5.486011|   -6.080257|
|         362|   -6.715968|   -5.190131|   -5.484695|   -6.082872|
|         363|   -6.712251|   -5.192802|   -5.483359|   -6.085290|
|         364|   -6.708355|   -5.195391|   -5.481935|   -6.087502|
|         365|   -6.704399|   -5.197908|   -5.480587|   -6.089507|
|         366|   -6.700350|   -5.200349|   -5.479278|   -6.091530|
|         367|   -6.696219|   -5.202710|   -5.478037|   -6.093524|
|         368|   -6.692026|   -5.204975|   -5.476835|   -6.095296|
|         369|   -6.687782|   -5.207135|   -5.475731|   -6.096845|
|         370|   -6.683503|   -5.209176|   -5.474692|   -6.098180|
|         371|   -6.679208|   -5.211102|   -5.473726|   -6.099315|
|         372|   -6.674944|   -5.212924|   -5.472835|   -6.100365|
|         373|   -6.670738|   -5.214627|   -5.472033|   -6.101261|
|         374|   -6.666588|   -5.216168|   -5.471320|   -6.102157|
|         375|   -6.662424|   -5.217483|   -5.470743|   -6.102897|
|         376|   -6.658223|   -5.218521|   -5.470292|   -6.103452|
|         377|   -6.653943|   -5.219250|   -5.470007|   -6.103910|
|         378|   -6.649520|   -5.219662|   -5.469922|   -6.104254|
|         379|   -6.644932|   -5.219805|   -5.470076|   -6.104498|
|         380|   -6.640192|   -5.219749|   -5.470509|   -6.104687|
|         381|   -6.635373|   -5.219590|   -5.471178|   -6.104886|
|         382|   -6.630597|   -5.219475|   -5.472182|   -6.105152|
|         383|   -6.625682|   -5.219445|   -5.473381|   -6.105545|
|         384|   -6.620648|   -5.219424|   -5.474801|   -6.106169|
|         385|   -6.616028|   -5.219413|   -5.476609|   -6.107049|
|         386|   -6.611882|   -5.219450|   -5.478300|   -6.108332|
|         387|   -6.607934|   -5.219561|   -5.479545|   -6.110036|
|         388|   -6.603926|   -5.219754|   -5.480893|   -6.112197|
|         389|   -6.599864|   -5.220040|   -5.482266|   -6.114894|
|         390|   -6.595830|   -5.220461|   -5.483600|   -6.118169|
|         391|   -6.591928|   -5.221139|   -5.484934|   -6.122012|
|         392|   -6.588278|   -5.222206|   -5.486460|   -6.126438|
|         393|   -6.584840|   -5.223664|   -5.488174|   -6.131455|
|         394|   -6.581634|   -5.225478|   -5.489050|   -6.137026|
|         395|   -6.578879|   -5.227772|   -5.487997|   -6.143099|
|         396|   -6.576474|   -5.230590|   -5.487019|   -6.149609|
|         397|   -6.574179|   -5.233933|   -5.485495|   -6.156495|
|         398|   -6.572220|   -5.237767|   -5.484001|   -6.163726|
|         399|   -6.570538|   -5.242013|   -5.482516|   -6.171255|
|         400|   -6.569213|   -5.246622|   -5.481312|   -6.179010|
|         401|   -6.568255|   -5.251519|   -5.480295|   -6.186956|
|         402|   -6.567653|   -5.256596|   -5.479255|   -6.195037|
|         403|   -6.567455|   -5.261776|   -5.478163|   -6.203208|
|         404|   -6.567665|   -5.267013|   -5.477007|   -6.211447|
|         405|   -6.568114|   -5.272243|   -5.475770|   -6.219719|
|         406|   -6.568552|   -5.277356|   -5.474354|   -6.227976|
|         407|   -6.568948|   -5.282289|   -5.472805|   -6.236175|
|         408|   -6.569266|   -5.287011|   -5.471106|   -6.244293|
|         409|   -6.569466|   -5.291501|   -5.469266|   -6.252296|
|         410|   -6.569514|   -5.295749|   -5.467280|   -6.260139|
|         411|   -6.569392|   -5.299736|   -5.465184|   -6.267790|
|         412|   -6.569057|   -5.303444|   -5.462966|   -6.275207|
|         413|   -6.568505|   -5.306857|   -5.460624|   -6.282369|
|         414|   -6.567899|   -5.309956|   -5.452133|   -6.289325|
|         415|   -6.567055|   -5.312617|   -5.443727|   -6.295930|
|         416|   -6.565548|   -5.314770|   -5.434445|   -6.302129|
|         417|   -6.563937|   -5.316471|   -5.424975|   -6.307874|
|         418|   -6.562245|   -5.317731|   -5.415445|   -6.313080|
|         419|   -6.560693|   -5.318609|   -5.406307|   -6.317753|
|         420|   -6.559315|   -5.319128|   -5.397706|   -6.321852|
|         421|   -6.558087|   -5.319336|   -5.389533|   -6.325305|
|         422|   -6.556972|   -5.319258|   -5.381739|   -6.328080|
|         423|   -6.555921|   -5.318922|   -5.374251|   -6.330146|
|         424|   -6.554873|   -5.318342|   -5.366997|   -6.331502|
|         425|   -6.553813|   -5.317520|   -5.360011|   -6.332135|
|         426|   -6.552676|   -5.316462|   -5.353239|   -6.332021|
|         427|   -6.551466|   -5.315170|   -5.346741|   -6.331197|
|         428|   -6.550139|   -5.313654|   -5.340461|   -6.329686|
|         429|   -6.548714|   -5.311920|   -5.334448|   -6.327497|
|         430|   -6.547163|   -5.309984|   -5.328619|   -6.324692|
|         431|   -6.545543|   -5.307853|   -5.323049|   -6.321267|
|         432|   -6.543845|   -5.305549|   -5.317377|   -6.317282|
|         433|   -6.542146|   -5.303057|   -5.311838|   -6.312822|
|         434|   -6.540404|   -5.300391|   -5.306474|   -6.307880|
|         435|   -6.538704|   -5.297537|   -5.301404|   -6.302526|
|         436|   -6.537024|   -5.294512|   -5.296554|   -6.296735|
|         437|   -6.535423|   -5.291295|   -5.292061|   -6.290641|
|         438|   -6.533823|   -5.287882|   -5.287775|   -6.284198|
|         439|   -6.532254|   -5.284227|   -5.283802|   -6.277465|
|         440|   -6.530641|   -5.280319|   -5.279994|   -6.270473|
|         441|   -6.529023|   -5.276134|   -5.276515|   -6.263269|
|         442|   -6.527319|   -5.271671|   -5.273204|   -6.255792|
|         443|   -6.525553|   -5.266903|   -5.270162|   -6.248081|
|         444|   -6.523671|   -5.261829|   -5.267228|   -6.240137|
|         445|   -6.521709|   -5.256415|   -5.264475|   -6.231972|
|         446|   -6.519630|   -5.250664|   -5.261759|   -6.223593|
|         447|   -6.517460|   -5.244546|   -5.259146|   -6.215035|
|         448|   -6.515165|   -5.238070|   -5.256513|   -6.206282|
|         449|   -6.512774|   -5.231217|   -5.253902|   -6.197334|
|         450|   -6.510261|   -5.224004|   -5.251203|   -6.188215|
|         451|   -6.507662|   -5.216427|   -5.248447|   -6.178969|
|         452|   -6.504964|   -5.208492|   -5.245533|   -6.169579|
|         453|   -6.502198|   -5.200200|   -5.242467|   -6.160011|
|         454|   -6.499359|   -5.191560|   -5.239135|   -6.150364|
|         455|   -6.496480|   -5.182571|   -5.235568|   -6.140622|
|         456|   -6.493520|   -5.173271|   -5.231616|   -6.130888|
|         457|   -6.490501|   -5.163651|   -5.227256|   -6.121099|
|         458|   -6.487472|   -5.153718|   -5.222446|   -6.111115|
|         459|   -6.484410|   -5.143578|   -5.217103|   -6.101042|
|         460|   -6.481363|   -5.133313|   -5.211267|   -6.090917|
|         461|   -6.478364|   -5.122933|   -5.204956|   -6.080742|
|         462|   -6.475418|   -5.112476|   -5.198116|   -6.070520|
|         463|   -6.472576|   -5.101980|   -5.190819|   -6.060268|
|         464|   -6.469870|   -5.091488|   -5.183112|   -6.049969|
|         465|   -6.467307|   -5.081084|   -5.175004|   -6.039654|
|         466|   -6.464934|   -5.070829|   -5.166565|   -6.029285|
|         467|   -6.462761|   -5.060838|   -5.157848|   -6.018891|
|         468|   -6.460838|   -5.051151|   -5.148925|   -6.008404|
|         469|   -6.459160|   -5.041865|   -5.139865|   -5.997847|
|         470|   -6.457750|   -5.032915|   -5.130740|   -5.987197|
|         471|   -6.456546|   -5.024348|   -5.121616|   -5.976451|
|         472|   -6.455501|   -5.016273|   -5.112520|   -5.965548|
|         473|   -6.454524|   -5.008976|   -5.103520|   -5.954494|
|         474|   -6.453655|   -5.002427|   -5.094611|   -5.943276|
|         475|   -6.452814|   -4.996535|   -5.085805|   -5.931911|
|         476|   -6.451994|   -4.991282|   -5.077108|   -5.920485|
|         477|   -6.451197|   -4.986623|   -5.068513|   -5.909054|
|         478|   -6.450780|   -4.982437|   -5.060011|   -5.897663|
|         479|   -6.450973|   -4.978482|   -5.051590|   -5.886328|
|         480|   -6.451665|   -4.975201|   -5.043198|   -5.875370|
|         481|   -6.452142|   -4.973291|   -5.034797|   -5.865462|
|         482|   -6.451612|   -4.972640|   -5.026261|   -5.857265|
|         483|   -6.449886|   -4.972184|   -5.017476|   -5.851001|
|         484|   -6.447193|   -4.970877|   -5.008416|   -5.846827|
|         485|   -6.443865|   -4.968170|   -4.999108|   -5.844757|
|         486|   -6.440165|   -4.963906|   -4.989648|   -5.844671|
|         487|   -6.436440|   -4.958129|   -4.980134|   -5.846249|
|         488|   -6.433043|   -4.951063|   -4.970725|   -5.849064|
|         489|   -6.430438|   -4.943205|   -4.961591|   -5.852735|
|         490|   -6.428901|   -4.935329|   -4.952892|   -5.856836|
|         491|   -6.428526|   -4.928240|   -4.944764|   -5.861072|
|         492|   -6.429239|   -4.922522|   -4.937285|   -5.865302|
|         493|   -6.430758|   -4.918384|   -4.930527|   -5.869452|
|         494|   -6.432772|   -4.915548|   -4.924514|   -5.873493|
|         495|   -6.435083|   -4.913486|   -4.919246|   -5.877457|
|         496|   -6.437577|   -4.911665|   -4.914707|   -5.881407|
|         497|   -6.440181|   -4.909719|   -4.910834|   -5.885365|
|         498|   -6.442910|   -4.907517|   -4.907482|   -5.889401|
|         499|   -6.445730|   -4.905084|   -4.904512|   -5.893590|
|         500|   -6.448457|   -4.902503|   -4.901726|   -5.897907|
|         501|   -6.451024|   -4.899849|   -4.898931|   -5.902417|
|         502|   -6.453408|   -4.897209|   -4.896014|   -5.907217|
|         503|   -6.455624|   -4.894581|   -4.892855|   -5.912442|
|         504|   -6.457512|   -4.891964|   -4.889411|   -5.917996|
|         505|   -6.459207|   -4.889263|   -4.885691|   -5.923900|
|         506|   -6.460856|   -4.886421|   -4.881722|   -5.930212|
|         507|   -6.462554|   -4.883463|   -4.877577|   -5.936839|
|         508|   -6.464203|   -4.880396|   -4.873320|   -5.943677|
|         509|   -6.465989|   -4.877186|   -4.869030|   -5.950723|
|         510|   -6.467668|   -4.873982|   -4.864776|   -5.957756|
|         511|   -6.469301|   -4.870817|   -4.860581|   -5.964812|
|         512|   -6.470771|   -4.867779|   -4.856493|   -5.971705|
|         513|   -6.471995|   -4.864925|   -4.852547|   -5.978421|
|         514|   -6.472987|   -4.862263|   -4.848738|   -5.984831|
|         515|   -6.473780|   -4.859824|   -4.845085|   -5.991087|
|         516|   -6.474265|   -4.857636|   -4.841597|   -5.996948|
|         517|   -6.474518|   -4.855687|   -4.838242|   -6.002509|
|         518|   -6.474541|   -4.854073|   -4.835064|   -6.007849|
|         519|   -6.474283|   -4.852734|   -4.832027|   -6.012717|
|         520|   -6.473756|   -4.851613|   -4.829073|   -6.017199|
|         521|   -6.472938|   -4.850805|   -4.826261|   -6.021170|
|         522|   -6.471831|   -4.850275|   -4.823616|   -6.024833|
|         523|   -6.470386|   -4.849899|   -4.821118|   -6.027833|
|         524|   -6.468619|   -4.849653|   -4.818788|   -6.030399|
|         525|   -6.466488|   -4.849511|   -4.816622|   -6.032309|
|         526|   -6.464058|   -4.849488|   -4.814720|   -6.033653|
|         527|   -6.461317|   -4.849476|   -4.813130|   -6.034609|
|         528|   -6.458267|   -4.849412|   -4.811836|   -6.034906|
|         529|   -6.454964|   -4.849245|   -4.810856|   -6.034635|
|         530|   -6.451412|   -4.848937|   -4.810251|   -6.034109|
|         531|   -6.447593|   -4.848545|   -4.810146|   -6.033200|
|         532|   -6.443521|   -4.847926|   -4.810571|   -6.031900|
|         533|   -6.439139|   -4.847062|   -4.811547|   -6.030234|
|         534|   -6.434386|   -4.846042|   -4.813082|   -6.028309|
|         535|   -6.429246|   -4.844810|   -4.815172|   -6.026506|
|         536|   -6.423800|   -4.843330|   -4.817837|   -6.024501|
|         537|   -6.418085|   -4.841785|   -4.821195|   -6.022248|
|         538|   -6.412261|   -4.840447|   -4.825293|   -6.020299|
|         539|   -6.406720|   -4.839727|   -4.830162|   -6.018025|
|         540|   -6.400932|   -4.840248|   -4.835732|   -6.016007|
|         541|   -6.394897|   -4.842355|   -4.842023|   -6.014131|
|         542|   -6.387771|   -4.846280|   -4.849043|   -6.012263|
|         543|   -6.383598|   -4.850888|   -4.856710|   -6.010356|
|         544|   -6.382831|   -4.856207|   -4.865496|   -6.008865|
|         545|   -6.379795|   -4.862805|   -4.876548|   -6.007361|
|         546|   -6.375539|   -4.869408|   -4.889986|   -6.006933|
|         547|   -6.370153|   -4.876301|   -4.906183|   -6.007695|
|         548|   -6.363798|   -4.883794|   -4.925675|   -6.009435|
|         549|   -6.363637|   -4.890032|   -4.947683|   -6.012988|
|         550|   -6.370832|   -4.895709|   -4.972424|   -6.015314|
|         551|   -6.387817|   -4.901457|   -5.000236|   -6.015577|
|         552|   -6.411144|   -4.909279|   -5.030875|   -6.014067|
|         553|   -6.433399|   -4.920330|   -5.055482|   -6.011352|
|         554|   -6.449416|   -4.930471|   -5.067070|   -6.007094|
|         555|   -6.448009|   -4.935581|   -5.084521|   -6.003333|
|         556|   -6.443610|   -4.935358|   -5.107202|   -6.000159|
|         557|   -6.439534|   -4.932276|   -5.133921|   -5.996719|
|         558|   -6.436117|   -4.928174|   -5.159705|   -5.992579|
|         559|   -6.434705|   -4.923871|   -5.181827|   -5.987935|
|         560|   -6.435838|   -4.920000|   -5.200615|   -5.982983|
|         561|   -6.438944|   -4.916976|   -5.217330|   -5.977876|
|         562|   -6.443031|   -4.915191|   -5.232360|   -5.972713|
|         563|   -6.447250|   -4.914831|   -5.244863|   -5.967674|
|         564|   -6.451062|   -4.915794|   -5.253482|   -5.962877|
|         565|   -6.454487|   -4.917762|   -5.257388|   -5.958375|
|         566|   -6.457827|   -4.920311|   -5.256886|   -5.954276|
|         567|   -6.461414|   -4.923035|   -5.253398|   -5.950630|
|         568|   -6.465488|   -4.925605|   -5.248798|   -5.947493|
|         569|   -6.470144|   -4.927713|   -5.244572|   -5.944871|
|         570|   -6.475348|   -4.929133|   -5.241593|   -5.942811|
|         571|   -6.480863|   -4.929717|   -5.240136|   -5.941170|
|         572|   -6.486313|   -4.929380|   -5.240136|   -5.939828|
|         573|   -6.491222|   -4.928177|   -5.241250|   -5.938679|
|         574|   -6.495207|   -4.926236|   -5.243025|   -5.937589|
|         575|   -6.498085|   -4.923764|   -5.245046|   -5.936485|
|         576|   -6.499880|   -4.921012|   -5.247056|   -5.935351|
|         577|   -6.500753|   -4.918206|   -5.248942|   -5.934200|
|         578|   -6.500778|   -4.915495|   -5.250647|   -5.933036|
|         579|   -6.499935|   -4.912928|   -5.252069|   -5.931921|
|         580|   -6.498217|   -4.910490|   -5.252974|   -5.930956|
|         581|   -6.495865|   -4.908165|   -5.253087|   -5.930269|
|         582|   -6.493566|   -4.905942|   -5.251911|   -5.929994|
|         583|   -6.491987|   -4.903835|   -5.249702|   -5.930162|
|         584|   -6.491562|   -4.901885|   -5.246860|   -5.930627|
|         585|   -6.492162|   -4.900142|   -5.243695|   -5.931085|
|         586|   -6.493008|   -4.898680|   -5.240402|   -5.931090|
|         587|   -6.492736|   -4.897568|   -5.236920|   -5.930064|
|         588|   -6.489789|   -4.896891|   -5.233097|   -5.927638|
|         589|   -6.483275|   -4.896683|   -5.228962|   -5.924020|
|         590|   -6.473615|   -4.896905|   -5.224442|   -5.919778|
|         591|   -6.461959|   -4.897532|   -5.219581|   -5.916129|
|         592|   -6.448929|   -4.898550|   -5.214580|   -5.914080|
|         593|   -6.435825|   -4.899896|   -5.209663|   -5.913468|
|         594|   -6.424567|   -4.901581|   -5.205561|   -5.914264|
|         595|   -6.415221|   -4.903462|   -5.202276|   -5.916810|
|         596|   -6.407316|   -4.905447|   -5.199293|   -5.920468|
|         597|   -6.401768|   -4.907872|   -5.196871|   -5.924221|
|         598|   -6.398722|   -4.910563|   -5.195174|   -5.927792|
|         599|   -6.396820|   -4.912988|   -5.193959|   -5.931199|
|         600|   -6.395580|   -4.915072|   -5.193202|   -5.934375|
|         601|   -6.394801|   -4.917042|   -5.193060|   -5.937221|
|         602|   -6.394362|   -4.919020|   -5.193490|   -5.939690|
|         603|   -6.394187|   -4.920995|   -5.194302|   -5.941804|
|         604|   -6.394188|   -4.922999|   -5.195411|   -5.943612|
|         605|   -6.394355|   -4.925114|   -5.196765|   -5.945158|
|         606|   -6.394732|   -4.927383|   -5.198220|   -5.946494|
|         607|   -6.395391|   -4.929826|   -5.199620|   -5.947676|
|         608|   -6.396446|   -4.932476|   -5.200855|   -5.948751|
|         609|   -6.397932|   -4.935356|   -5.201836|   -5.949753|
|         610|   -6.399795|   -4.938489|   -5.202487|   -5.950707|
|         611|   -6.401958|   -4.941891|   -5.202742|   -5.951625|
|         612|   -6.404282|   -4.945549|   -5.202542|   -5.952506|
|         613|   -6.406600|   -4.949448|   -5.201851|   -5.953342|
|         614|   -6.408851|   -4.953558|   -5.200295|   -5.954123|
|         615|   -6.410926|   -4.957825|   -5.197536|   -5.954850|
|         616|   -6.412723|   -4.962159|   -5.194395|   -5.955524|
|         617|   -6.414381|   -4.966482|   -5.191047|   -5.956144|
|         618|   -6.415961|   -4.970689|   -5.187646|   -5.956725|
|         619|   -6.417571|   -4.974687|   -5.184463|   -5.957270|
|         620|   -6.419248|   -4.978363|   -5.181555|   -5.957781|
|         621|   -6.421049|   -4.981646|   -5.179038|   -5.958258|
|         622|   -6.422911|   -4.984481|   -5.176843|   -5.958703|
|         623|   -6.424836|   -4.986866|   -5.174888|   -5.959106|
|         624|   -6.426746|   -4.988829|   -5.173067|   -5.959482|
|         625|   -6.428596|   -4.990420|   -5.171239|   -5.959826|
|         626|   -6.430349|   -4.991704|   -5.169300|   -5.960139|
|         627|   -6.431983|   -4.992758|   -5.167240|   -5.960432|
|         628|   -6.433437|   -4.993640|   -5.164968|   -5.960702|
|         629|   -6.434704|   -4.994409|   -5.162547|   -5.960952|
|         630|   -6.435723|   -4.995097|   -5.159999|   -5.961189|
|         631|   -6.436560|   -4.995740|   -5.157368|   -5.961407|
|         632|   -6.437206|   -4.996361|   -5.154747|   -5.961604|
|         633|   -6.437654|   -4.996972|   -5.152211|   -5.961784|
|         634|   -6.437984|   -4.997586|   -5.149796|   -5.961940|
|         635|   -6.438257|   -4.998205|   -5.147578|   -5.962067|
|         636|   -6.438467|   -4.998853|   -5.145504|   -5.962172|
|         637|   -6.438719|   -4.999528|   -5.143641|   -5.962251|
|         638|   -6.439008|   -5.000224|   -5.141916|   -5.962304|
|         639|   -6.439381|   -5.000946|   -5.140337|   -5.962333|
|         640|   -6.439867|   -5.001691|   -5.138856|   -5.962328|
|         641|   -6.440449|   -5.002459|   -5.137415|   -5.962298|
|         642|   -6.441280|   -5.003254|   -5.136190|   -5.962236|
|         643|   -6.442190|   -5.004056|   -5.134834|   -5.962143|
|         644|   -6.443333|   -5.004857|   -5.133606|   -5.962026|
|         645|   -6.444668|   -5.005641|   -5.132409|   -5.961887|
|         646|   -6.446224|   -5.006400|   -5.131330|   -5.961728|
|         647|   -6.447990|   -5.007120|   -5.130300|   -5.961560|
|         648|   -6.450030|   -5.007808|   -5.129376|   -5.961383|
|         649|   -6.452313|   -5.008459|   -5.128627|   -5.961206|
|         650|   -6.454841|   -5.009095|   -5.128079|   -5.961043|
|         651|   -6.457629|   -5.009729|   -5.127794|   -5.960894|
|         652|   -6.460653|   -5.010390|   -5.127798|   -5.960776|
|         653|   -6.463877|   -5.011100|   -5.128116|   -5.960697|
|         654|   -6.467282|   -5.011893|   -5.128807|   -5.960665|
|         655|   -6.470818|   -5.012800|   -5.129882|   -5.960693|
|         656|   -6.474436|   -5.013852|   -5.131369|   -5.960790|
|         657|   -6.478117|   -5.015079|   -5.133287|   -5.960957|
|         658|   -6.481805|   -5.016497|   -5.135647|   -5.961207|
|         659|   -6.485519|   -5.018129|   -5.138497|   -5.961545|
|         660|   -6.489238|   -5.019975|   -5.141834|   -5.961966|
|         661|   -6.492990|   -5.022039|   -5.145714|   -5.962478|
|         662|   -6.496777|   -5.024308|   -5.150123|   -5.963087|
|         663|   -6.500636|   -5.026769|   -5.155086|   -5.963788|
|         664|   -6.504590|   -5.029403|   -5.160571|   -5.964581|
|         665|   -6.508660|   -5.032185|   -5.166553|   -5.965472|
|         666|   -6.512890|   -5.035101|   -5.172972|   -5.966457|
|         667|   -6.517306|   -5.038129|   -5.179759|   -5.967531|
|         668|   -6.521920|   -5.041252|   -5.186833|   -5.968692|
|         669|   -6.526734|   -5.044460|   -5.194043|   -5.969942|
|         670|   -6.531741|   -5.047731|   -5.201235|   -5.971278|
|         671|   -6.536908|   -5.051051|   -5.208204|   -5.972693|
|         672|   -6.542184|   -5.054405|   -5.214720|   -5.974187|
|         673|   -6.547506|   -5.057770|   -5.220561|   -5.975758|
|         674|   -6.552798|   -5.061123|   -5.225497|   -5.977413|
|         675|   -6.557986|   -5.064442|   -5.229334|   -5.979144|
|         676|   -6.563005|   -5.067696|   -5.231958|   -5.980953|
|         677|   -6.567791|   -5.070848|   -5.233330|   -5.982836|
|         678|   -6.572312|   -5.073859|   -5.233494|   -5.984791|
|         679|   -6.576560|   -5.076685|   -5.232590|   -5.986827|
|         680|   -6.580545|   -5.079276|   -5.230836|   -5.988936|
|         681|   -6.584306|   -5.081580|   -5.228492|   -5.991120|
|         682|   -6.587896|   -5.083547|   -5.225834|   -5.993373|
|         683|   -6.591388|   -5.085128|   -5.223136|   -5.995696|
|         684|   -6.594856|   -5.086278|   -5.220650|   -5.998085|
|         685|   -6.598384|   -5.086959|   -5.218592|   -6.000539|
|         686|   -6.602051|   -5.087148|   -5.217140|   -6.003058|
|         687|   -6.605923|   -5.086841|   -5.216427|   -6.005638|
|         688|   -6.610053|   -5.086048|   -5.216542|   -6.008275|
|         689|   -6.614473|   -5.084792|   -5.217522|   -6.010967|
|         690|   -6.619196|   -5.083115|   -5.219357|   -6.013711|
|         691|   -6.624219|   -5.081081|   -5.222018|   -6.016503|
|         692|   -6.629520|   -5.078751|   -5.225439|   -6.019339|
|         693|   -6.635063|   -5.076185|   -5.229524|   -6.022215|
|         694|   -6.640792|   -5.073444|   -5.234146|   -6.025126|
|         695|   -6.646648|   -5.070588|   -5.239150|   -6.028069|
|         696|   -6.652561|   -5.067674|   -5.244369|   -6.031039|
|         697|   -6.658457|   -5.064758|   -5.249625|   -6.034032|
|         698|   -6.664265|   -5.061891|   -5.254735|   -6.037045|
|         699|   -6.669913|   -5.059119|   -5.259522|   -6.040075|
|         700|   -6.675335|   -5.056490|   -5.263813|   -6.043117|
|         701|   -6.680480|   -5.054048|   -5.267472|   -6.046168|
|         702|   -6.685299|   -5.051827|   -5.270389|   -6.049230|
|         703|   -6.689738|   -5.049861|   -5.272461|   -6.052295|
|         704|   -6.693776|   -5.048183|   -5.273644|   -6.055358|
|         705|   -6.697391|   -5.046815|   -5.273948|   -6.058421|
|         706|   -6.700570|   -5.045772|   -5.273399|   -6.061480|
|         707|   -6.703313|   -5.045057|   -5.272056|   -6.064535|
|         708|   -6.705630|   -5.044670|   -5.270006|   -6.067584|
|         709|   -6.707547|   -5.044593|   -5.267370|   -6.070621|
|         710|   -6.709099|   -5.044801|   -5.264250|   -6.073643|
|         711|   -6.710356|   -5.045262|   -5.260844|   -6.076658|
|         712|   -6.711369|   -5.045937|   -5.257248|   -6.079665|
|         713|   -6.712246|   -5.046778|   -5.253660|   -6.082668|
|         714|   -6.713039|   -5.047733|   -5.250170|   -6.085645|
|         715|   -6.713856|   -5.048750|   -5.246939|   -6.088604|
|         716|   -6.714792|   -5.049779|   -5.244097|   -6.091539|
|         717|   -6.715931|   -5.050760|   -5.241757|   -6.094450|
|         718|   -6.717346|   -5.051652|   -5.239975|   -6.097342|
|         719|   -6.719131|   -5.052415|   -5.238885|   -6.100212|
|         720|   -6.721349|   -5.053014|   -5.238550|   -6.103070|
|         721|   -6.724046|   -5.053423|   -5.239024|   -6.105904|
|         722|   -6.727323|   -5.053629|   -5.240381|   -6.108703|
|         723|   -6.731174|   -5.053615|   -5.242641|   -6.111468|
|         724|   -6.735614|   -5.053381|   -5.245827|   -6.114190|
|         725|   -6.740694|   -5.052937|   -5.249954|   -6.116872|
|         726|   -6.746442|   -5.052303|   -5.255077|   -6.119532|
|         727|   -6.752846|   -5.051501|   -5.261163|   -6.122160|
|         728|   -6.759931|   -5.050557|   -5.268252|   -6.124744|
|         729|   -6.767667|   -5.049470|   -5.276278|   -6.127302|
|         730|   -6.776080|   -5.048262|   -5.285319|   -6.129791|
|         731|   -6.785105|   -5.046967|   -5.295270|   -6.132247|
|         732|   -6.794767|   -5.045629|   -5.306220|   -6.134679|
|         733|   -6.805035|   -5.044284|   -5.318073|   -6.137063|
|         734|   -6.815875|   -5.042947|   -5.330845|   -6.139386|
|         735|   -6.827276|   -5.041638|   -5.344481|   -6.141680|
|         736|   -6.839199|   -5.040380|   -5.358971|   -6.143910|
|         737|   -6.851469|   -5.039188|   -5.374117|   -6.146088|
|         738|   -6.864375|   -5.038061|   -5.390264|   -6.148226|
|         739|   -6.877205|   -5.036999|   -5.406542|   -6.150293|
|         740|   -6.890555|   -5.036025|   -5.423743|   -6.152315|
|         741|   -6.903518|   -5.035122|   -5.440634|   -6.154297|
|         742|   -6.916730|   -5.034338|   -5.458135|   -6.156213|
|         743|   -6.929321|   -5.033647|   -5.474964|   -6.158098|
|         744|   -6.941307|   -5.033071|   -5.491178|   -6.159924|
|         745|   -6.952963|   -5.032620|   -5.507060|   -6.161711|
|         746|   -6.963400|   -5.032276|   -5.521194|   -6.163471|
|         747|   -6.972607|   -5.032038|   -5.533667|   -6.165187|
|         748|   -6.980282|   -5.031885|   -5.543879|   -6.166904|
|         749|   -6.986568|   -5.031842|   -5.552037|   -6.168589|
|         750|   -6.990866|   -5.031888|   -5.557308|   -6.170282|
|         751|   -6.993590|   -5.032050|   -5.560160|   -6.171991|
|         752|   -6.994095|   -5.032302|   -5.559923|   -6.173710|
|         753|   -6.992967|   -5.032660|   -5.557468|   -6.175472|
|         754|   -6.989995|   -5.033135|   -5.552577|   -6.177287|
|         755|   -6.985327|   -5.033711|   -5.545731|   -6.179154|
|         756|   -6.979450|   -5.034414|   -5.537506|   -6.181124|
|         757|   -6.972213|   -5.035241|   -5.527926|   -6.183163|
|         758|   -6.964091|   -5.036185|   -5.517633|   -6.185318|
|         759|   -6.955307|   -5.037255|   -5.506903|   -6.187605|
|         760|   -6.945943|   -5.038439|   -5.495901|   -6.190012|
|         761|   -6.936353|   -5.039724|   -5.484979|   -6.192586|
|         762|   -6.926697|   -5.041108|   -5.474335|   -6.195320|
|         763|   -6.917095|   -5.042564|   -5.464031|   -6.198227|
|         764|   -6.907791|   -5.044080|   -5.454297|   -6.201343|
|         765|   -6.898854|   -5.045630|   -5.445169|   -6.204658|
|         766|   -6.890429|   -5.047186|   -5.436779|   -6.208188|
|         767|   -6.882632|   -5.048727|   -5.429175|   -6.211953|
|         768|   -6.875512|   -5.050226|   -5.422348|   -6.215965|
|         769|   -6.869220|   -5.051668|   -5.416523|   -6.220206|
|         770|   -6.863610|   -5.053014|   -5.411349|   -6.224699|
|         771|   -6.858936|   -5.054263|   -5.407168|   -6.229460|
|         772|   -6.855064|   -5.055393|   -5.403766|   -6.234462|
|         773|   -6.852104|   -5.056400|   -5.401288|   -6.239705|
|         774|   -6.849976|   -5.057279|   -5.399587|   -6.245191|
|         775|   -6.848695|   -5.058041|   -5.398658|   -6.250918|
|         776|   -6.848200|   -5.058702|   -5.398435|   -6.256856|
|         777|   -6.848543|   -5.059284|   -5.399051|   -6.262985|
|         778|   -6.849460|   -5.059809|   -5.400122|   -6.269299|
|         779|   -6.851027|   -5.060319|   -5.401790|   -6.275793|
|         780|   -6.853140|   -5.060857|   -5.404026|   -6.282432|
|         781|   -6.855537|   -5.061455|   -5.406527|   -6.289201|
|         782|   -6.858209|   -5.062163|   -5.409358|   -6.296074|
|         783|   -6.860914|   -5.063025|   -5.412252|   -6.303036|
|         784|   -6.863721|   -5.064092|   -5.415467|   -6.310039|
|         785|   -6.866127|   -5.065384|   -5.418376|   -6.317066|
|         786|   -6.868266|   -5.066947|   -5.421227|   -6.324116|
|         787|   -6.869861|   -5.068807|   -5.423754|   -6.331121|
|         788|   -6.870871|   -5.070981|   -5.425973|   -6.338062|
|         789|   -6.871204|   -5.073477|   -5.427806|   -6.344931|
|         790|   -6.870697|   -5.076301|   -5.429110|   -6.351674|
|         791|   -6.869383|   -5.079450|   -5.429932|   -6.358280|
|         792|   -6.867233|   -5.082909|   -5.430218|   -6.364742|
|         793|   -6.864273|   -5.086661|   -5.430011|   -6.371006|
|         794|   -6.860558|   -5.090682|   -5.429333|   -6.377035|
|         795|   -6.856167|   -5.094952|   -5.428233|   -6.382801|
|         796|   -6.851184|   -5.099444|   -5.426781|   -6.388251|
|         797|   -6.845700|   -5.104129|   -5.425012|   -6.393341|
|         798|   -6.839847|   -5.108979|   -5.423045|   -6.398051|
|         799|   -6.833727|   -5.113961|   -5.420963|   -6.402294|
|         800|   -6.827448|   -5.119046|   -5.418853|   -6.406099|
|         801|   -6.821068|   -5.124202|   -5.416777|   -6.409345|
|         802|   -6.814680|   -5.129396|   -5.414801|   -6.412097|
|         803|   -6.808332|   -5.134601|   -5.412985|   -6.414237|
|         804|   -6.802088|   -5.139784|   -5.411389|   -6.415787|
|         805|   -6.795985|   -5.144920|   -5.410064|   -6.416696|
|         806|   -6.790060|   -5.149976|   -5.409061|   -6.416959|
|         807|   -6.784331|   -5.154918|   -5.408420|   -6.416589|
|         808|   -6.778791|   -5.159711|   -5.408177|   -6.415556|
|         809|   -6.773439|   -5.164322|   -5.408351|   -6.413905|
|         810|   -6.768261|   -5.168714|   -5.408960|   -6.411662|
|         811|   -6.763250|   -5.172857|   -5.409994|   -6.408881|
|         812|   -6.758384|   -5.176731|   -5.411426|   -6.405597|
|         813|   -6.753662|   -5.180306|   -5.413230|   -6.401949|
|         814|   -6.749064|   -5.183548|   -5.415395|   -6.397991|
|         815|   -6.744580|   -5.186467|   -5.417914|   -6.393828|
|         816|   -6.740166|   -5.189109|   -5.420760|   -6.389597|
|         817|   -6.735777|   -5.191524|   -5.423900|   -6.385329|
|         818|   -6.731422|   -5.193764|   -5.427298|   -6.381213|
|         819|   -6.727096|   -5.195887|   -5.430922|   -6.377242|
|         820|   -6.722809|   -5.197950|   -5.434740|   -6.373568|
|         821|   -6.718554|   -5.200017|   -5.438720|   -6.370189|
|         822|   -6.714334|   -5.202146|   -5.442831|   -6.367198|
|         823|   -6.710164|   -5.204397|   -5.447042|   -6.364585|
|         824|   -6.706059|   -5.206824|   -5.451337|   -6.362387|
|         825|   -6.702014|   -5.209470|   -5.455705|   -6.360583|
|         826|   -6.698028|   -5.212328|   -5.460138|   -6.359165|
|         827|   -6.694145|   -5.215449|   -5.462781|   -6.358104|
|         828|   -6.690805|   -5.218722|   -5.454538|   -6.357391|
|         829|   -6.686684|   -5.222258|   -5.446930|   -6.356968|
|         830|   -6.681822|   -5.225920|   -5.437944|   -6.356791|
|         831|   -6.677011|   -5.229700|   -5.428244|   -6.356823|
|         832|   -6.672170|   -5.233561|   -5.418039|   -6.357030|
|         833|   -6.667428|   -5.237513|   -5.407650|   -6.357370|
|         834|   -6.662897|   -5.241623|   -5.397212|   -6.357822|
|         835|   -6.658641|   -5.245972|   -5.386793|   -6.358339|
|         836|   -6.654557|   -5.250512|   -5.376313|   -6.358906|
|         837|   -6.650573|   -5.255231|   -5.365776|   -6.359494|
|         838|   -6.646690|   -5.259983|   -5.355294|   -6.360096|
|         839|   -6.642767|   -5.264673|   -5.344504|   -6.360688|
|         840|   -6.638628|   -5.269141|   -5.333289|   -6.361217|
|         841|   -6.634259|   -5.273395|   -5.321885|   -6.361650|
|         842|   -6.629868|   -5.277530|   -5.310340|   -6.361989|
|         843|   -6.625549|   -5.281715|   -5.298626|   -6.362207|
|         844|   -6.621285|   -5.285863|   -5.287199|   -6.362277|
|         845|   -6.616915|   -5.289817|   -5.275787|   -6.362190|
|         846|   -6.612552|   -5.293542|   -5.264536|   -6.361912|
|         847|   -6.608216|   -5.297012|   -5.253483|   -6.361433|
|         848|   -6.603988|   -5.300243|   -5.242749|   -6.360736|
|         849|   -6.599898|   -5.303243|   -5.232370|   -6.359806|
|         850|   -6.595944|   -5.305991|   -5.222334|   -6.358643|
|         851|   -6.592249|   -5.308517|   -5.212827|   -6.357249|
|         852|   -6.588609|   -5.310724|   -5.203554|   -6.355621|
|         853|   -6.585200|   -5.312609|   -5.194737|   -6.353775|
|         854|   -6.581993|   -5.314135|   -5.186330|   -6.351734|
|         855|   -6.579027|   -5.315277|   -5.178382|   -6.349519|
|         856|   -6.576312|   -5.316019|   -5.170893|   -6.347171|
|         857|   -6.573872|   -5.316347|   -5.163875|   -6.344714|
|         858|   -6.571726|   -5.316254|   -5.157336|   -6.342198|
|         859|   -6.569890|   -5.315741|   -5.151285|   -6.339669|
|         860|   -6.568379|   -5.314811|   -5.145728|   -6.337179|
|         861|   -6.567208|   -5.313470|   -5.140673|   -6.334770|
|         862|   -6.566393|   -5.311721|   -5.136133|   -6.332501|
|         863|   -6.565954|   -5.309568|   -5.132121|   -6.330398|
|         864|   -6.565910|   -5.307017|   -5.128649|   -6.328505|
|         865|   -6.566281|   -5.304084|   -5.125726|   -6.326850|
|         866|   -6.567077|   -5.300796|   -5.123357|   -6.325446|
|         867|   -6.568305|   -5.297186|   -5.121541|   -6.324301|
|         868|   -6.569967|   -5.293291|   -5.120274|   -6.323413|
|         869|   -6.572058|   -5.289153|   -5.119540|   -6.322781|
|         870|   -6.574546|   -5.284812|   -5.119303|   -6.322392|
|         871|   -6.577426|   -5.280309|   -5.119555|   -6.322235|
|         872|   -6.580695|   -5.275692|   -5.120291|   -6.322285|
|         873|   -6.584331|   -5.271006|   -5.121490|   -6.322521|
|         874|   -6.588299|   -5.266283|   -5.123120|   -6.322915|
|         875|   -6.592572|   -5.261552|   -5.125158|   -6.323451|
|         876|   -6.597131|   -5.256833|   -5.127593|   -6.324106|
|         877|   -6.601910|   -5.252144|   -5.130345|   -6.324861|
|         878|   -6.606894|   -5.247495|   -5.133408|   -6.325699|
|         879|   -6.612038|   -5.242895|   -5.136737|   -6.326623|
|         880|   -6.617311|   -5.238353|   -5.140297|   -6.327595|
|         881|   -6.622674|   -5.233890|   -5.144046|   -6.328593|
|         882|   -6.628095|   -5.229524|   -5.147955|   -6.329626|
|         883|   -6.633551|   -5.225257|   -5.152016|   -6.330674|
|         884|   -6.639004|   -5.221084|   -5.156194|   -6.331728|
|         885|   -6.644425|   -5.216994|   -5.160466|   -6.332789|
|         886|   -6.649797|   -5.212974|   -5.164813|   -6.333826|
|         887|   -6.655105|   -5.209016|   -5.169216|   -6.334833|
|         888|   -6.660341|   -5.205105|   -5.173659|   -6.335801|
|         889|   -6.665489|   -5.201224|   -5.178117|   -6.336717|
|         890|   -6.670541|   -5.197355|   -5.182567|   -6.337578|
|         891|   -6.675494|   -5.193482|   -5.187000|   -6.338369|
|         892|   -6.680355|   -5.189590|   -5.191410|   -6.339067|
|         893|   -6.685123|   -5.185660|   -5.195798|   -6.339638|
|         894|   -6.689807|   -5.181681|   -5.200160|   -6.340089|
|         895|   -6.694420|   -5.177645|   -5.204500|   -6.340377|
|         896|   -6.698981|   -5.173543|   -5.208823|   -6.340505|
|         897|   -6.703494|   -5.169373|   -5.213123|   -6.340442|
|         898|   -6.707978|   -5.165134|   -5.217403|   -6.340197|
|         899|   -6.712445|   -5.160832|   -5.221676|   -6.339739|
|         900|   -6.716910|   -5.156475|   -5.225958|   -6.339063|
|         901|   -6.721388|   -5.152069|   -5.230268|   -6.338154|
|         902|   -6.725889|   -5.147633|   -5.234627|   -6.337005|
|         903|   -6.730420|   -5.143163|   -5.239052|   -6.335645|
|         904|   -6.735030|   -5.138620|   -5.243562|   -6.334035|
|         905|   -6.739692|   -5.134054|   -5.248170|   -6.332177|
|         906|   -6.744418|   -5.129539|   -5.252892|   -6.330080|
|         907|   -6.749217|   -5.125090|   -5.257739|   -6.327779|
|         908|   -6.754089|   -5.120704|   -5.262725|   -6.325307|
|         909|   -6.759029|   -5.116381|   -5.267862|   -6.322708|
|         910|   -6.764035|   -5.112133|   -5.273162|   -6.320023|
|         911|   -6.769102|   -5.107969|   -5.278639|   -6.317302|
|         912|   -6.774225|   -5.103899|   -5.284305|   -6.314587|
|         913|   -6.779396|   -5.099934|   -5.290164|   -6.311903|
|         914|   -6.784607|   -5.096086|   -5.296221|   -6.309292|
|         915|   -6.789841|   -5.092365|   -5.302477|   -6.306757|
|         916|   -6.795094|   -5.088784|   -5.308930|   -6.304307|
|         917|   -6.800352|   -5.085343|   -5.315571|   -6.301951|
|         918|   -6.805604|   -5.082047|   -5.322399|   -6.299697|
|         919|   -6.810837|   -5.078896|   -5.329405|   -6.297550|
|         920|   -6.816044|   -5.075895|   -5.336569|   -6.295513|
|         921|   -6.821202|   -5.073034|   -5.343865|   -6.293595|
|         922|   -6.826300|   -5.070307|   -5.351266|   -6.291782|
|         923|   -6.831310|   -5.067704|   -5.358733|   -6.290060|
|         924|   -6.836219|   -5.065216|   -5.366225|   -6.288398|
|         925|   -6.841008|   -5.062838|   -5.373686|   -6.286780|
|         926|   -6.845667|   -5.060563|   -5.381053|   -6.285172|
|         927|   -6.850185|   -5.058381|   -5.388254|   -6.283562|
|         928|   -6.854567|   -5.056297|   -5.395215|   -6.281934|
|         929|   -6.858817|   -5.054311|   -5.401861|   -6.280277|
|         930|   -6.862932|   -5.052416|   -5.408123|   -6.278595|
|         931|   -6.866908|   -5.050596|   -5.413941|   -6.276889|
|         932|   -6.870746|   -5.048837|   -5.419259|   -6.275157|
|         933|   -6.874451|   -5.047126|   -5.424036|   -6.273401|
|         934|   -6.878034|   -5.045452|   -5.428240|   -6.271633|
|         935|   -6.881508|   -5.043799|   -5.431846|   -6.269870|
|         936|   -6.884887|   -5.042151|   -5.434838|   -6.268119|
|         937|   -6.888193|   -5.040493|   -5.437208|   -6.266395|
|         938|   -6.891441|   -5.038807|   -5.438961|   -6.264721|
|         939|   -6.894641|   -5.037080|   -5.440099|   -6.263110|
|         940|   -6.897812|   -5.035294|   -5.440624|   -6.261567|
|         941|   -6.900973|   -5.033435|   -5.440540|   -6.260119|
|         942|   -6.904125|   -5.031495|   -5.439853|   -6.258780|
|         943|   -6.907283|   -5.029461|   -5.438560|   -6.257556|
|         944|   -6.910459|   -5.027327|   -5.436650|   -6.256465|
|         945|   -6.913640|   -5.025086|   -5.434118|   -6.255520|
|         946|   -6.916813|   -5.022737|   -5.430943|   -6.254725|
|         947|   -6.919979|   -5.020285|   -5.427115|   -6.254098|
|         948|   -6.923129|   -5.017729|   -5.422624|   -6.253645|
|         949|   -6.926259|   -5.015064|   -5.417460|   -6.253372|
|         950|   -6.929321|   -5.012288|   -5.411623|   -6.253301|
|         951|   -6.932285|   -5.009403|   -5.405113|   -6.253435|
|         952|   -6.935120|   -5.006418|   -5.397947|   -6.253785|
|         953|   -6.937796|   -5.003341|   -5.390141|   -6.254354|
|         954|   -6.940250|   -5.000183|   -5.381731|   -6.255144|
|         955|   -6.942461|   -4.996957|   -5.372763|   -6.256157|
|         956|   -6.944353|   -4.993672|   -5.363274|   -6.257399|
|         957|   -6.945938|   -4.990345|   -5.353304|   -6.258858|
|         958|   -6.947094|   -4.986992|   -5.342902|   -6.260539|
|         959|   -6.947840|   -4.983634|   -5.332120|   -6.262438|
|         960|   -6.948078|   -4.980294|   -5.321013|   -6.264543|
|         961|   -6.947785|   -4.976984|   -5.309643|   -6.266866|
|         962|   -6.946944|   -4.973721|   -5.298067|   -6.269398|
|         963|   -6.945482|   -4.970517|   -5.286325|   -6.272130|
|         964|   -6.943486|   -4.967388|   -5.274460|   -6.275068|
|         965|   -6.940912|   -4.964347|   -5.262516|   -6.278194|
|         966|   -6.937744|   -4.961403|   -5.250523|   -6.281497|
|         967|   -6.934127|   -4.958569|   -5.238513|   -6.284978|
|         968|   -6.929997|   -4.955846|   -5.226526|   -6.288622|
|         969|   -6.925386|   -4.953239|   -5.214582|   -6.292415|
|         970|   -6.920450|   -4.950767|   -5.202706|   -6.296345|
|         971|   -6.915164|   -4.948423|   -5.190943|   -6.300398|
|         972|   -6.909559|   -4.946217|   -5.179314|   -6.304552|
|         973|   -6.903715|   -4.944153|   -5.167816|   -6.308790|
|         974|   -6.897749|   -4.942244|   -5.156440|   -6.313090|
|         975|   -6.891616|   -4.940484|   -5.145197|   -6.317431|
[...]
|       13199|  -10.765893|   -9.188920|   -9.582696|   -8.056051|
|       13200|  -10.762685|   -9.190795|   -9.580052|   -8.056052|
|       13201|  -10.759569|   -9.192674|   -9.577474|   -8.056053|
|       13202|  -10.756554|   -9.194555|   -9.574976|   -8.056055|
|       13203|  -10.753670|   -9.196438|   -9.572613|   -8.056056|
|       13204|  -10.750848|   -9.198321|   -9.570272|   -8.056057|
|       13205|  -10.748127|   -9.200204|   -9.568010|   -8.056058|
|       13206|  -10.745515|   -9.202085|   -9.565847|   -8.056059|
|       13207|  -10.742988|   -9.203964|   -9.563746|   -8.056061|
|       13208|  -10.740553|   -9.205838|   -9.561721|   -8.056062|
|       13209|  -10.738236|   -9.207708|   -9.559817|   -8.056063|
|       13210|  -10.735981|   -9.209571|   -9.557942|   -8.056064|
|       13211|  -10.733820|   -9.211427|   -9.556143|   -8.056064|
|       13212|  -10.731764|   -9.213275|   -9.554446|   -8.056065|
|       13213|  -10.729780|   -9.215112|   -9.552800|   -8.056066|
|       13214|  -10.727885|   -9.216938|   -9.551227|   -8.056067|
|       13215|  -10.726095|   -9.218752|   -9.549760|   -8.056067|
|       13216|  -10.724373|   -9.220553|   -9.548337|   -8.056068|
|       13217|  -10.722737|   -9.222338|   -9.546985|   -8.056069|
|       13218|  -10.721201|   -9.224108|   -9.545733|   -8.056069|
|       13219|  -10.719735|   -9.225860|   -9.544532|   -8.056070|
|       13220|  -10.718351|   -9.227593|   -9.543398|   -8.056070|
|       13221|  -10.717065|   -9.229306|   -9.542361|   -8.056071|
|       13222|  -10.715849|   -9.230998|   -9.541378|   -8.056071|
|       13223|  -10.714711|   -9.232667|   -9.540459|   -8.056071|
|       13224|  -10.713669|   -9.234313|   -9.539634|   -8.056072|
|       13225|  -10.712698|   -9.235933|   -9.538866|   -8.056072|
|       13226|  -10.711802|   -9.237527|   -9.538160|   -8.056072|
|       13227|  -10.710999|   -9.239094|   -9.537545|   -8.056072|
|       13228|  -10.710268|   -9.240631|   -9.536990|   -8.056072|
|       13229|  -10.709611|   -9.242139|   -9.536494|   -8.056072|
|       13230|  -10.709044|   -9.243615|   -9.536086|   -8.056072|
|       13231|  -10.708550|   -9.245059|   -9.535743|   -8.056072|
|       13232|  -10.708127|   -9.246469|   -9.535455|   -8.056072|
|       13233|  -10.707793|   -9.247845|   -9.535253|   -8.056072|
|       13234|  -10.707534|   -9.249184|   -9.535120|   -8.056071|
|       13235|  -10.707343|   -9.250487|   -9.535038|   -8.056071|
|       13236|  -10.707240|   -9.251752|   -9.535042|   -8.056071|
|       13237|  -10.707214|   -9.252978|   -9.535117|   -8.056070|
|       13238|  -10.707253|   -9.254165|   -9.535241|   -8.056070|
|       13239|  -10.707378|   -9.255310|   -9.535448|   -8.056069|
|       13240|  -10.707582|   -9.256415|   -9.535731|   -8.056069|
|       13241|  -10.707850|   -9.257476|   -9.536061|   -8.056068|
|       13242|  -10.708203|   -9.258495|   -9.536471|   -8.056068|
|       13243|  -10.708638|   -9.259470|   -9.536962|   -8.056067|
|       13244|  -10.709134|   -9.260400|   -9.537495|   -8.056066|
|       13245|  -10.709714|   -9.261286|   -9.538110|   -8.056066|
|       13246|  -10.710379|   -9.262126|   -9.538807|   -8.056065|
|       13247|  -10.711102|   -9.262919|   -9.539546|   -8.056064|
|       13248|  -10.711911|   -9.263667|   -9.540364|   -8.056063|
|       13249|  -10.712805|   -9.264368|   -9.541268|   -8.056062|
|       13250|  -10.713758|   -9.265021|   -9.542212|   -8.056061|
|       13251|  -10.714795|   -9.265627|   -9.543236|   -8.056060|
|       13252|  -10.715920|   -9.266187|   -9.544347|   -8.056059|
|       13253|  -10.717102|   -9.266698|   -9.545497|   -8.056058|
|       13254|  -10.718370|   -9.267162|   -9.546727|   -8.056057|
|       13255|  -10.719727|   -9.267579|   -9.548046|   -8.056056|
|       13256|  -10.721142|   -9.267947|   -9.549404|   -8.056054|
|       13257|  -10.722642|   -9.268269|   -9.550842|   -8.056053|
|       13258|  -10.724233|   -9.268545|   -9.552369|   -8.056052|
|       13259|  -10.725883|   -9.268773|   -9.553938|   -8.056050|
|       13260|  -10.727619|   -9.268955|   -9.555585|   -8.056049|
|       13261|  -10.729446|   -9.269092|   -9.557323|   -8.056048|
|       13262|  -10.731335|   -9.269183|   -9.559103|   -8.056046|
|       13263|  -10.733310|   -9.269229|   -9.560962|   -8.056045|
|       13264|  -10.735377|   -9.269232|   -9.562912|   -8.056043|
|       13265|  -10.737508|   -9.269191|   -9.564907|   -8.056041|
|       13266|  -10.739727|   -9.269106|   -9.566982|   -8.056040|
|       13267|  -10.742040|   -9.268981|   -9.569146|   -8.056038|
|       13268|  -10.744418|   -9.268814|   -9.571359|   -8.056036|
|       13269|  -10.746886|   -9.268607|   -9.573651|   -8.056035|
|       13270|  -10.749448|   -9.268361|   -9.576034|   -8.056033|
|       13271|  -10.752080|   -9.268077|   -9.578467|   -8.056031|
|       13272|  -10.754802|   -9.267754|   -9.580980|   -8.056029|
|       13273|  -10.757620|   -9.267397|   -9.583584|   -8.056027|
|       13274|  -10.760511|   -9.267003|   -9.586241|   -8.056025|
|       13275|  -10.763495|   -9.266575|   -9.588979|   -8.056023|
|       13276|  -10.766576|   -9.266116|   -9.591808|   -8.056021|
|       13277|  -10.769735|   -9.265623|   -9.594693|   -8.056019|
|       13278|  -10.772987|   -9.265100|   -9.597660|   -8.056017|
|       13279|  -10.776340|   -9.264549|   -9.600717|   -8.056015|
|       13280|  -10.779774|   -9.263968|   -9.603836|   -8.056013|
|       13281|  -10.783303|   -9.263361|   -9.607035|   -8.056011|
|       13282|  -10.786937|   -9.262729|   -9.610326|   -8.056009|
|       13283|  -10.790656|   -9.262071|   -9.613681|   -8.056006|
|       13284|  -10.794473|   -9.261391|   -9.617118|   -8.056004|
|       13285|  -10.798398|   -9.260689|   -9.620647|   -8.056002|
|       13286|  -10.802412|   -9.259967|   -9.624244|   -8.055999|
|       13287|  -10.806528|   -9.259224|   -9.627923|   -8.055997|
|       13288|  -10.810755|   -9.258465|   -9.631694|   -8.055995|
|       13289|  -10.815076|   -9.257688|   -9.635538|   -8.055992|
|       13290|  -10.819504|   -9.256896|   -9.639464|   -8.055990|
|       13291|  -10.824046|   -9.256091|   -9.643483|   -8.055987|
|       13292|  -10.828688|   -9.255272|   -9.647578|   -8.055985|
|       13293|  -10.833441|   -9.254441|   -9.651756|   -8.055982|
|       13294|  -10.838312|   -9.253600|   -9.656028|   -8.055980|
|       13295|  -10.843291|   -9.252750|   -9.660379|   -8.055977|
|       13296|  -10.848385|   -9.251892|   -9.664816|   -8.055975|
|       13297|  -10.853602|   -9.251028|   -9.669344|   -8.055972|
|       13298|  -10.858933|   -9.250158|   -9.673955|   -8.055969|
|       13299|  -10.864381|   -9.249283|   -9.678648|   -8.055967|
|       13300|  -10.869961|   -9.248405|   -9.683438|   -8.055964|
|       13301|  -10.875668|   -9.247526|   -9.688316|   -8.055961|
|       13302|  -10.881499|   -9.246645|   -9.693281|   -8.055959|
|       13303|  -10.887456|   -9.245764|   -9.698329|   -8.055956|
|       13304|  -10.893550|   -9.244884|   -9.703472|   -8.055953|
|       13305|  -10.899781|   -9.244007|   -9.708701|   -8.055950|
|       13306|  -10.906150|   -9.243133|   -9.714025|   -8.055948|
|       13307|  -10.912652|   -9.242263|   -9.719429|   -8.055945|
|       13308|  -10.919304|   -9.241398|   -9.724929|   -8.055942|
|       13309|  -10.926101|   -9.240540|   -9.730514|   -8.055939|
|       13310|  -10.933048|   -9.239689|   -9.736193|   -8.055936|
|       13311|  -10.940139|   -9.238846|   -9.741951|   -8.055933|
|       13312|  -10.947390|   -9.238011|   -9.747804|   -8.055930|
|       13313|  -10.954799|   -9.237188|   -9.753736|   -8.055927|
|       13314|  -10.962372|   -9.236374|   -9.759765|   -8.055925|
|       13315|  -10.970100|   -9.235571|   -9.765867|   -8.055922|
|       13316|  -10.978001|   -9.234781|   -9.772059|   -8.055919|
|       13317|  -10.986071|   -9.234005|   -9.778325|   -8.055916|
|       13318|  -10.994320|   -9.233241|   -9.784682|   -8.055913|
|       13319|  -11.002735|   -9.232493|   -9.791105|   -8.055910|
|       13320|  -11.011334|   -9.231759|   -9.797608|   -8.055907|
|       13321|  -11.020116|   -9.231042|   -9.804175|   -8.055904|
|       13322|  -11.029088|   -9.230341|   -9.810822|   -8.055901|
|       13323|  -11.038239|   -9.229657|   -9.817524|   -8.055898|
|       13324|  -11.047584|   -9.228991|   -9.824288|   -8.055895|
|       13325|  -11.057123|   -9.228345|   -9.831102|   -8.055892|
|       13326|  -11.066861|   -9.227717|   -9.837975|   -8.055889|
|       13327|  -11.076787|   -9.227108|   -9.844885|   -8.055885|
|       13328|  -11.086911|   -9.226519|   -9.851829|   -8.055882|
|       13329|  -11.097238|   -9.225952|   -9.858803|   -8.055879|
|       13330|  -11.107761|   -9.225405|   -9.865802|   -8.055876|
|       13331|  -11.118474|   -9.224880|   -9.872811|   -8.055873|
|       13332|  -11.129376|   -9.224377|   -9.879812|   -8.055870|
|       13333|  -11.140478|   -9.223898|   -9.886812|   -8.055867|
|       13334|  -11.151757|   -9.223441|   -9.893788|   -8.055864|
|       13335|  -11.163207|   -9.223006|   -9.900731|   -8.055861|
|       13336|  -11.174815|   -9.222597|   -9.907612|   -8.055858|
|       13337|  -11.186591|   -9.222212|   -9.914442|   -8.055855|
|       13338|  -11.198493|   -9.221851|   -9.921185|   -8.055852|
|       13339|  -11.210506|   -9.221514|   -9.927836|   -8.055849|
|       13340|  -11.222603|   -9.221204|   -9.934353|   -8.055845|
|       13341|  -11.234784|   -9.220919|   -9.940752|   -8.055842|
|       13342|  -11.246975|   -9.220660|   -9.946983|   -8.055839|
|       13343|  -11.259149|   -9.220427|   -9.953042|   -8.055836|
|       13344|  -11.271254|   -9.220221|   -9.958889|   -8.055833|
|       13345|  -11.283254|   -9.220041|   -9.964521|   -8.055830|
|       13346|  -11.295060|   -9.219889|   -9.969901|   -8.055827|
|       13347|  -11.306596|   -9.219762|   -9.975019|   -8.055824|
|       13348|  -11.317810|   -9.219666|   -9.979834|   -8.055821|
|       13349|  -11.328605|   -9.219595|   -9.984345|   -8.055818|
|       13350|  -11.338844|   -9.219553|   -9.988506|   -8.055815|
|       13351|  -11.348464|   -9.219539|   -9.992311|   -8.055812|
|       13352|  -11.357347|   -9.219553|   -9.995733|   -8.055809|
|       13353|  -11.365375|   -9.219596|   -9.998755|   -8.055806|
|       13354|  -11.372422|   -9.219666|  -10.001367|   -8.055803|
|       13355|  -11.378453|   -9.219766|  -10.003566|   -8.055800|
|       13356|  -11.383314|   -9.219895|  -10.005307|   -8.055797|
|       13357|  -11.386941|   -9.220053|  -10.006600|   -8.055794|
|       13358|  -11.389280|   -9.220239|  -10.007442|   -8.055791|
|       13359|  -11.390339|   -9.220455|  -10.007843|   -8.055788|
|       13360|  -11.390042|   -9.220701|  -10.007767|   -8.055785|
|       13361|  -11.388411|   -9.220974|  -10.007242|   -8.055782|
|       13362|  -11.385586|   -9.221279|  -10.006314|   -8.055779|
|       13363|  -11.381454|   -9.221611|  -10.004900|   -8.055776|
|       13364|  -11.376226|   -9.221973|  -10.003111|   -8.055773|
|       13365|  -11.370067|   -9.222366|  -10.000959|   -8.055770|
|       13366|  -11.362787|   -9.222788|   -9.998292|   -8.055768|
|       13367|  -11.354784|   -9.223239|   -9.995325|   -8.055765|
|       13368|  -11.346081|   -9.223720|   -9.992018|   -8.055762|
|       13369|  -11.336738|   -9.224230|   -9.988376|   -8.055759|
|       13370|  -11.326945|   -9.224770|   -9.984470|   -8.055756|
|       13371|  -11.316660|   -9.225339|   -9.980224|   -8.055754|
|       13372|  -11.306060|   -9.225937|   -9.975743|   -8.055751|
|       13373|  -11.295387|   -9.226567|   -9.971147|   -8.055748|
|       13374|  -11.284255|   -9.227224|   -9.966095|   -8.055745|
|       13375|  -11.273248|   -9.227913|   -9.961029|   -8.055743|
|       13376|  -11.262034|   -9.228629|   -9.955663|   -8.055740|
|       13377|  -11.250972|   -9.229376|   -9.950306|   -8.055737|
|       13378|  -11.239865|   -9.230152|   -9.944757|   -8.055735|
|       13379|  -11.228760|   -9.230956|   -9.939054|   -8.055732|
|       13380|  -11.217930|   -9.231791|   -9.933428|   -8.055729|
|       13381|  -11.206968|   -9.232653|   -9.927479|   -8.055727|
|       13382|  -11.196326|   -9.233545|   -9.921648|   -8.055724|
|       13383|  -11.185753|   -9.234466|   -9.915683|   -8.055722|
|       13384|  -11.175345|   -9.235414|   -9.909698|   -8.055719|
|       13385|  -11.165233|   -9.236392|   -9.903837|   -8.055717|
|       13386|  -11.155162|   -9.237398|   -9.897813|   -8.055714|
|       13387|  -11.145328|   -9.238432|   -9.891837|   -8.055712|
|       13388|  -11.135688|   -9.239494|   -9.885870|   -8.055710|
|       13389|  -11.126242|   -9.240583|   -9.879929|   -8.055707|
|       13390|  -11.116992|   -9.241700|   -9.874025|   -8.055705|
|       13391|  -11.107968|   -9.242845|   -9.868202|   -8.055702|
|       13392|  -11.099076|   -9.244015|   -9.862348|   -8.055700|
|       13393|  -11.090449|   -9.245214|   -9.856633|   -8.055698|
|       13394|  -11.081937|   -9.246438|   -9.850871|   -8.055696|
|       13395|  -11.073679|   -9.247689|   -9.845248|   -8.055693|
|       13396|  -11.065566|   -9.248965|   -9.839629|   -8.055691|
|       13397|  -11.057676|   -9.250268|   -9.834128|   -8.055689|
|       13398|  -11.049954|   -9.251595|   -9.828676|   -8.055687|
|       13399|  -11.042414|   -9.252948|   -9.823303|   -8.055685|
|       13400|  -11.035069|   -9.254325|   -9.818028|   -8.055683|
|       13401|  -11.027863|   -9.255726|   -9.812785|   -8.055681|
|       13402|  -11.020878|   -9.257152|   -9.807689|   -8.055679|
|       13403|  -11.014001|   -9.258601|   -9.802594|   -8.055677|
|       13404|  -11.007353|   -9.260073|   -9.797670|   -8.055675|
|       13405|  -11.000804|   -9.261568|   -9.792741|   -8.055673|
|       13406|  -10.994468|   -9.263085|   -9.787972|   -8.055671|
|       13407|  -10.988237|   -9.264624|   -9.783215|   -8.055669|
|       13408|  -10.982215|   -9.266184|   -9.778628|   -8.055667|
|       13409|  -10.976331|   -9.267766|   -9.774117|   -8.055665|
|       13410|  -10.970537|   -9.269367|   -9.769604|   -8.055664|
|       13411|  -10.964939|   -9.270988|   -9.765251|   -8.055662|
|       13412|  -10.959521|   -9.272629|   -9.761051|   -8.055660|
|       13413|  -10.954124|   -9.274288|   -9.756759|   -8.055659|
|       13414|  -10.948989|   -9.275966|   -9.752738|   -8.055657|
|       13415|  -10.943890|   -9.277661|   -9.748659|   -8.055655|
|       13416|  -10.938998|   -9.279373|   -9.744784|   -8.055654|
|       13417|  -10.934185|   -9.281101|   -9.740924|   -8.055652|
|       13418|  -10.929517|   -9.282844|   -9.737178|   -8.055651|
|       13419|  -10.925000|   -9.284602|   -9.733566|   -8.055649|
|       13420|  -10.920549|   -9.286374|   -9.729954|   -8.055648|
|       13421|  -10.916264|   -9.288160|   -9.726496|   -8.055646|
|       13422|  -10.912042|   -9.289957|   -9.723033|   -8.055645|
|       13423|  -10.908005|   -9.291768|   -9.719762|   -8.055644|
|       13424|  -10.904034|   -9.293589|   -9.716502|   -8.055642|
|       13425|  -10.900191|   -9.295420|   -9.713345|   -8.055641|
|       13426|  -10.896485|   -9.297261|   -9.710318|   -8.055640|
|       13427|  -10.892855|   -9.299111|   -9.707322|   -8.055639|
|       13428|  -10.889338|   -9.300967|   -9.704415|   -8.055637|
|       13429|  -10.885955|   -9.302831|   -9.701640|   -8.055636|
|       13430|  -10.882639|   -9.304701|   -9.698890|   -8.055635|
|       13431|  -10.879430|   -9.306575|   -9.696221|   -8.055634|
|       13432|  -10.876339|   -9.308453|   -9.693661|   -8.055633|
|       13433|  -10.873332|   -9.310334|   -9.691155|   -8.055632|
|       13434|  -10.870426|   -9.312217|   -9.688732|   -8.055631|
|       13435|  -10.867647|   -9.314100|   -9.686439|   -8.055630|
|       13436|  -10.864930|   -9.315983|   -9.684171|   -8.055629|
|       13437|  -10.862311|   -9.317864|   -9.681981|   -8.055629|
|       13438|  -10.859800|   -9.319744|   -9.679892|   -8.055628|
|       13439|  -10.857371|   -9.321619|   -9.677862|   -8.055627|
|       13440|  -10.855033|   -9.323489|   -9.675907|   -8.055626|
|       13441|  -10.852810|   -9.325353|   -9.674070|   -8.055626|
|       13442|  -10.850649|   -9.327211|   -9.672265|   -8.055625|
|       13443|  -10.848579|   -9.329059|   -9.670536|   -8.055624|
|       13444|  -10.846614|   -9.330898|   -9.668910|   -8.055624|
|       13445|  -10.844719|   -9.332726|   -9.667333|   -8.055623|
|       13446|  -10.842911|   -9.334542|   -9.665827|   -8.055623|
|       13447|  -10.841205|   -9.336345|   -9.664426|   -8.055622|
|       13448|  -10.839568|   -9.338133|   -9.663072|   -8.055622|
|       13449|  -10.838015|   -9.339905|   -9.661788|   -8.055621|
|       13450|  -10.836560|   -9.341661|   -9.660602|   -8.055621|
|       13451|  -10.835174|   -9.343397|   -9.659468|   -8.055621|
|       13452|  -10.833869|   -9.345114|   -9.658400|   -8.055620|
|       13453|  -10.832658|   -9.346810|   -9.657427|   -8.055620|
|       13454|  -10.831519|   -9.348484|   -9.656511|   -8.055620|
|       13455|  -10.830456|   -9.350134|   -9.655657|   -8.055620|
|       13456|  -10.829486|   -9.351759|   -9.654895|   -8.055620|
|       13457|  -10.828588|   -9.353359|   -9.654193|   -8.055619|
|       13458|  -10.827763|   -9.354930|   -9.653551|   -8.055619|
|       13459|  -10.827029|   -9.356474|   -9.652998|   -8.055619|
|       13460|  -10.826369|   -9.357988|   -9.652509|   -8.055619|
|       13461|  -10.825778|   -9.359471|   -9.652075|   -8.055619|
|       13462|  -10.825277|   -9.360921|   -9.651730|   -8.055619|
|       13463|  -10.824851|   -9.362339|   -9.651451|   -8.055620|
|       13464|  -10.824492|   -9.363722|   -9.651225|   -8.055620|
|       13465|  -10.824220|   -9.365069|   -9.651085|   -8.055620|
|       13466|  -10.824026|   -9.366380|   -9.651015|   -8.055620|
|       13467|  -10.823896|   -9.367654|   -9.650996|   -8.055620|
|       13468|  -10.823852|   -9.368888|   -9.651060|   -8.055621|
|       13469|  -10.823887|   -9.370084|   -9.651198|   -8.055621|
|       13470|  -10.823985|   -9.371239|   -9.651384|   -8.055621|
|       13471|  -10.824167|   -9.372352|   -9.651651|   -8.055622|
|       13472|  -10.824431|   -9.373424|   -9.651997|   -8.055622|
|       13473|  -10.824755|   -9.374452|   -9.652387|   -8.055623|
|       13474|  -10.825163|   -9.375437|   -9.652858|   -8.055623|
|       13475|  -10.825654|   -9.376378|   -9.653411|   -8.055624|
|       13476|  -10.826204|   -9.377274|   -9.654005|   -8.055624|
|       13477|  -10.826837|   -9.378124|   -9.654679|   -8.055625|
|       13478|  -10.827556|   -9.378929|   -9.655438|   -8.055625|
|       13479|  -10.828332|   -9.379687|   -9.656237|   -8.055626|
|       13480|  -10.829192|   -9.380398|   -9.657115|   -8.055627|
|       13481|  -10.830138|   -9.381063|   -9.658081|   -8.055628|
|       13482|  -10.831141|   -9.381680|   -9.659085|   -8.055628|
|       13483|  -10.832228|   -9.382249|   -9.660168|   -8.055629|
|       13484|  -10.833403|   -9.382772|   -9.661340|   -8.055630|
|       13485|  -10.834635|   -9.383247|   -9.662551|   -8.055631|
|       13486|  -10.835951|   -9.383674|   -9.663841|   -8.055632|
|       13487|  -10.837356|   -9.384054|   -9.665220|   -8.055633|
|       13488|  -10.838820|   -9.384386|   -9.666639|   -8.055634|
|       13489|  -10.840368|   -9.384672|   -9.668137|   -8.055635|
|       13490|  -10.842005|   -9.384911|   -9.669725|   -8.055636|
|       13491|  -10.843703|   -9.385103|   -9.671355|   -8.055637|
|       13492|  -10.845486|   -9.385249|   -9.673063|   -8.055638|
|       13493|  -10.847359|   -9.385350|   -9.674861|   -8.055639|
|       13494|  -10.849294|   -9.385406|   -9.676703|   -8.055640|
|       13495|  -10.851316|   -9.385417|   -9.678623|   -8.055641|
|       13496|  -10.853429|   -9.385385|   -9.680634|   -8.055642|
