scsub> Executing:  'cd /home/hem1dev/Codes/SU2_Github_Mark_Test/SU2/Venturi'


WARNING: CONV_CRITERIA is deprecated. SU2 will choose the criteria automatically based on the CONV_FIELD.
That is, RESIDUAL for any RMS_* BGS_* value, and CAUCHY for coefficients such as DRAG etc.


-------------------------------------------------------------------------
|    ___ _   _ ___                                                      |
|   / __| | | |_  )   Release 7.1.1 "Blackbird"                         |
|   \__ \ |_| |/ /                                                      |
|   |___/\___//___|   Suite (Computational Fluid Dynamics Code)         |
|                                                                       |
-------------------------------------------------------------------------
| SU2 Project Website: https://su2code.github.io                        |
|                                                                       |
| The SU2 Project is maintained by the SU2 Foundation                   |
| (http://su2foundation.org)                                            |
-------------------------------------------------------------------------
| Copyright 2012-2021, SU2 Contributors                                 |
|                                                                       |
| SU2 is free software; you can redistribute it and/or                  |
| modify it under the terms of the GNU Lesser General Public            |
| License as published by the Free Software Foundation; either          |
| version 2.1 of the License, or (at your option) any later version.    |
|                                                                       |
| SU2 is distributed in the hope that it will be useful,                |
| but WITHOUT ANY WARRANTY; without even the implied warranty of        |
| MERCHANTABILITY or FITNESS FOR A PARTICULAR PURPOSE. See the GNU      |
| Lesser General Public License for more details.                       |
|                                                                       |
| You should have received a copy of the GNU Lesser General Public      |
| License along with SU2. If not, see <http://www.gnu.org/licenses/>.   |
-------------------------------------------------------------------------


WARNING: CONV_CRITERIA is deprecated. SU2 will choose the criteria automatically based on the CONV_FIELD.
That is, RESIDUAL for any RMS_* BGS_* value, and CAUCHY for coefficients such as DRAG etc.


Parsing config file for zone 0


WARNING: CONV_CRITERIA is deprecated. SU2 will choose the criteria automatically based on the CONV_FIELD.
That is, RESIDUAL for any RMS_* BGS_* value, and CAUCHY for coefficients such as DRAG etc.


----------------- Physical Case Definition ( Zone 0 ) -------------------
Incompressible RANS equations.
Turbulence model: Menter's SST
Hybrid RANS/LES: No Hybrid RANS/LES
No restart solution, use the values at infinity (freestream).
Dimensional simulation.
The reference area is 1 m^2.
The semi-span will be computed using the max y(3D) value.
The reference length is 1 m.
Input mesh file name: c6_cms_venturi.cgns

--------------- Space Numerical Integration ( Zone 0 ) ------------------
Flux difference splitting (FDS) upwind scheme for the flow inviscid terms.
Second order integration in space, with slope limiter.
No slope-limiting method. 
Average of gradients with correction (viscous flow terms).
Average of gradients with correction (viscous turbulence terms).
Gradient for upwind reconstruction: inverse-distance weighted Least-Squares.
Gradient for viscous and source terms: inverse-distance weighted Least-Squares.

--------------- Time Numerical Integration  ( Zone 0 ) ------------------
Local time stepping (steady state simulation).
Euler implicit method for the flow equations.
FGMRES is used for solving the linear system.
Using a ILU(0) preconditioning.
Convergence criteria of the linear solver: 1e-08.
Max number of linear iterations: 20.
No CFL adaptation.
Courant-Friedrichs-Lewy number:      100
Euler implicit time integration for the turbulence model.

------------------ Convergence Criteria  ( Zone 0 ) ---------------------
Maximum number of solver subiterations: 10000.
Begin convergence monitoring at iteration 10.
Residual minimum value: 1e-10.
Cauchy series min. value: 1e-06.
Number of Cauchy elements: 100.
Begin windowed time average at iteration 0.

-------------------- Output Information ( Zone 0 ) ----------------------
Writing solution files every 1000 iterations.
Writing the convergence history file every 1 inner iterations.
Writing the screen convergence history every 1 inner iterations.
The tabular file format is CSV (.csv).
Convergence history file name: history_test.
Forces breakdown file name: forces_breakdown.dat.
Surface file name: surface_flow_venturi_mixturedensity_30kW_fine_test.
Volume file name: flow_venturi_mixturedensity_30kW_fine_test.
Restart file name: restart_venturi_mixturedensity_30kW_fine_test.dat.

------------- Config File Boundary Information ( Zone 0 ) ---------------
+-----------------------------------------------------------------------+
|                        Marker Type|                        Marker Name|
+-----------------------------------------------------------------------+
|                     Symmetry plane|                               axis|
+-----------------------------------------------------------------------+
|                     Inlet boundary|                          gas_inlet|
|                                   |                          air_inlet|
+-----------------------------------------------------------------------+
|                    Outlet boundary|                             outlet|
+-----------------------------------------------------------------------+
|                     Heat flux wall|            wall-component1-surface|
+-----------------------------------------------------------------------+

-------------------- Output Preprocessing ( Zone 0 ) --------------------
Screen output fields: INNER_ITER, RMS_PRESSURE, RMS_VELOCITY-X, RMS_VELOCITY-Y, RMS_PASSIVE_SCALAR
History output group(s): RMS_RES, AERO_COEFF, FLOW_COEFF
Convergence field(s): RMS_PRESSURE, RMS_VELOCITY-X, RMS_VELOCITY-Y, RMS_TKE
Warning: No (valid) fields chosen for time convergence monitoring. Time convergence monitoring inactive.
  Info: Ignoring the following volume output fields/groups:
  SOURCE, LOOKUP
Volume output fields: DENSITY, SOLUTION, PRIMITIVE, RESIDUAL, COORDINATES

------------------- Geometry Preprocessing ( Zone 0 ) -------------------
Reading the CGNS file: c6_cms_venturi.cgns.
CGNS file contains 1 database(s).
Database 1, Base:  cell dimension of 2, physical dimension of 2.
1 total zone(s).
Zone 1, Zone: 292948 total vertices, 295883 total elements.
Loading CoordinateX values into linear partitions.
Loading CoordinateY values into linear partitions.
Distributing connectivity across all ranks.
Number of connectivity sections is 6.
Section gas_inlet contains 51 elements of type Mixed.
Section air_inlet contains 150 elements of type Mixed.
Section outlet contains 157 elements of type Mixed.
Section axis contains 1721 elements of type Mixed.
Section component1-surface contains 290183 elements of type Mixed.
Section wall-component1-surface contains 3621 elements of type Mixed.
Loading surface section gas_inlet from file.
Loading surface section air_inlet from file.
Loading surface section outlet from file.
Loading surface section axis from file.
Loading volume section component1-surface from file.
Loading surface section wall-component1-surface from file.
Two dimensional problem.
292948 grid points before partitioning.
290183 volume elements before partitioning.
5 surface markers.
51 boundary elements in index 0 (Marker = gas_inlet).
150 boundary elements in index 1 (Marker = air_inlet).
157 boundary elements in index 2 (Marker = outlet).
1721 boundary elements in index 3 (Marker = axis).
3621 boundary elements in index 4 (Marker = wall-component1-surface).
Executing the partitioning functions.
Building the graph adjacency structure.
Calling ParMETIS... graph partitioning complete (13660 edge cuts).
Distributing ParMETIS coloring.
Rebalancing vertices.
Rebalancing volume element connectivity.
Rebalancing markers and surface elements.
320613 vertices including ghost points. 
303879 interior elements including halo cells. 
174 triangles.
303705 quadrilaterals.
Establishing MPI communication patterns.
Setting point connectivity.
Renumbering points (Reverse Cuthill McKee Ordering).
Recomputing point connectivity.
Setting element connectivity.
Checking the numerical grid orientation.
All volume elements are correctly orientend.
All surface elements are correctly orientend.
Identifying edges and vertices.
Setting the control volume structure.
Area of the computational grid: 0.00286002.
Searching for the closest normal neighbors to the surfaces.
Storing a mapping from global to local point index.
Compute the surface curvature.
Max K: 25766.3. Mean K: 66.0693. Standard deviation K: 1007.76.
Checking for periodicity.
Computing mesh quality statistics for the dual control volumes.
+--------------------------------------------------------------+
|           Mesh Quality Metric|        Minimum|        Maximum|
+--------------------------------------------------------------+
|    Orthogonality Angle (deg.)|        45.2115|             90|
|     CV Face Area Aspect Ratio|              1|        10.3208|
|           CV Sub-Volume Ratio|              1|        9.85984|
+--------------------------------------------------------------+
Finding max control volume width.
Communicating number of neighbors.
Wetted area = 0 m.
Area projection in the x-plane = 0 m, y-plane = 0 m.
Max. coordinate in the x-direction = -1e+10 m, y-direction = -1e+10 m.
Min. coordinate in the x-direction = 1e+10 m, y-direction = 1e+10 m.
Checking if Euler & Symmetry markers are straight/plane:
Boundary marker axis is a single straight.
Computing wall distances.

-------------------- Solver Preprocessing ( Zone 0 ) --------------------
Incompressible flow: rho_ref, vel_ref, temp_ref, p_ref
are set to 1.0 in order to perform a dimensional calculation.
Force coefficients computed using initial values.
The reference area for force coeffs. is 1 m^2.
The reference length for force coeffs. is 1 m.
The pressure is decomposed into thermodynamic and dynamic components.
The initial value of the dynamic pressure is 0.
Mach number: 0, computed using fluid speed of sound.
For external flows, the initial state is imposed at the far-field.
Angle of attack (deg): 0, computed using the initial velocity.
Side slip angle (deg): 0, computed using the initial velocity.
Reynolds number per meter: 65290.8, computed using initial values.
Reynolds number is a byproduct of inputs only (not used internally).
SI units only. The grid should be dimensional (meters).
Energy equation is active and coupled for variable density.

-- Models:
+------------------------------------------------------------------------------+
|          Viscosity Model|        Conductivity Model|              Fluid Model|
+------------------------------------------------------------------------------+
|       CONSTANT_VISCOSITY|          CONSTANT_PRANDTL|+------------------------------------------------------------------------------+
-- Fluid properties:
+------------------------------------------------------------------------------+
|                  Name|    Dim. value|    Ref. value|      Unit|Non-dim. value|
+------------------------------------------------------------------------------+
|             Viscosity|     1.118e-05|             1|   N.s/m^2|     1.118e-05|
+------------------------------------------------------------------------------+
|        Prandtl (Lam.)|             -|             -|         -|          0.72|
|       Prandtl (Turb.)|             -|             -|         -|           0.9|
+------------------------------------------------------------------------------+
-- Initial and free-stream conditions:
+------------------------------------------------------------------------------+
|                  Name|    Dim. value|    Ref. value|      Unit|Non-dim. value|
+------------------------------------------------------------------------------+
|      Dynamic Pressure|             0|             1|        Pa|             0|
|        Total Pressure|      0.585985|             1|        Pa|      0.585985|
|               Density|       1.17197|             1|    kg/m^3|       1.17197|
|           Temperature|           300|             1|         K|           300|
|            Velocity-X|             1|             1|       m/s|             1|
|            Velocity-Y|             0|             1|       m/s|             0|
|    Velocity Magnitude|             1|             1|       m/s|             1|
+------------------------------------------------------------------------------+
|             Viscosity|     1.795e-05|             1|   N.s/m^2|     1.795e-05|
|          Conductivity|             -|             1|   W/m^2.K|             -|
|     Turb. Kin. Energy|       0.00375|             1|   m^2/s^2|       0.00375|
|     Spec. Dissipation|       24.4841|             1|       1/s|       24.4841|
+------------------------------------------------------------------------------+
|           Mach Number|             -|             -|         -|             0|
|       Reynolds Number|             -|             -|         -|       65290.8|
+------------------------------------------------------------------------------+
Initialize Jacobian structure (Navier-Stokes). MG level: 0.
Initialize Jacobian structure (passive scalar model).
Initialize Jacobian structure (SST model).

------------------- Numerics Preprocessing ( Zone 0 ) -------------------

----------------- Integration Preprocessing ( Zone 0 ) ------------------

------------------- Iteration Preprocessing ( Zone 0 ) ------------------
Euler/Navier-Stokes/RANS fluid iteration.

------------------------------ Begin Solver -----------------------------

Simulation Run using the Single-zone Driver
Initializing passive scalar (initial condition).
initialization = 1 1
+----------------------------------------------------------------+
|  Inner_Iter|      rms[P]|      rms[U]|      rms[V]|      rms[c]|
+----------------------------------------------------------------+
|           0|   -5.116953|   -4.847332|   -4.364756|   -5.721765|
|           1|   -4.995793|   -4.851393|   -4.078100|   -5.205523|
|           2|   -5.397632|   -4.572356|   -4.036724|   -5.316738|
|           3|   -5.504957|   -4.777127|   -4.088406|   -5.476249|
|           4|   -5.663525|   -4.867602|   -4.130074|   -5.533759|
|           5|   -5.606373|   -4.915127|   -4.342840|   -5.558856|
|           6|   -5.731114|   -4.873574|   -4.561216|   -5.590437|
|           7|   -5.772883|   -4.817365|   -4.714514|   -5.642997|
|           8|   -5.803691|   -4.779158|   -4.693043|   -5.704122|
|           9|   -5.801452|   -4.758260|   -4.568140|   -5.748725|
|          10|   -5.771671|   -4.744245|   -4.405588|   -5.767435|
|          11|   -5.748804|   -4.731542|   -4.312953|   -5.765779|
|          12|   -5.756370|   -4.718571|   -4.286459|   -5.752751|
|          13|   -5.787950|   -4.704266|   -4.297158|   -5.736798|
|          14|   -5.826801|   -4.686352|   -4.326501|   -5.723355|
|          15|   -5.861732|   -4.663343|   -4.360387|   -5.714460|
|          16|   -5.889369|   -4.636423|   -4.385779|   -5.709566|
|          17|   -5.909328|   -4.608376|   -4.394331|   -5.706943|
|          18|   -5.922338|   -4.581555|   -4.386473|   -5.704921|
|          19|   -5.930667|   -4.557036|   -4.369189|   -5.702303|
|          20|   -5.937499|   -4.534891|   -4.350505|   -5.698566|
|          21|   -5.945343|   -4.514767|   -4.335602|   -5.693695|
|          22|   -5.955155|   -4.496270|   -4.326250|   -5.687998|
|          23|   -5.966601|   -4.479103|   -4.321956|   -5.681880|
|          24|   -5.978791|   -4.463047|   -4.319918|   -5.675697|
|          25|   -5.990807|   -4.447879|   -4.318883|   -5.669671|
|          26|   -6.002082|   -4.433449|   -4.317883|   -5.663884|
|          27|   -6.012412|   -4.419647|   -4.316282|   -5.658312|
|          28|   -6.021856|   -4.406403|   -4.314083|   -5.652903|
|          29|   -6.030591|   -4.393671|   -4.311645|   -5.647586|
|          30|   -6.038796|   -4.381385|   -4.309420|   -5.642334|
|          31|   -6.046589|   -4.369465|   -4.307685|   -5.637143|
|          32|   -6.054021|   -4.357828|   -4.306539|   -5.632003|
|          33|   -6.061078|   -4.346428|   -4.305861|   -5.626902|
|          34|   -6.067726|   -4.335263|   -4.305313|   -5.621854|
|          35|   -6.073922|   -4.324369|   -4.304613|   -5.616910|
|          36|   -6.079646|   -4.313768|   -4.302669|   -5.612134|
|          37|   -6.084961|   -4.303453|   -4.299048|   -5.607587|
|          38|   -6.089923|   -4.293412|   -4.293795|   -5.603297|
|          39|   -6.094548|   -4.283659|   -4.288570|   -5.599243|
|          40|   -6.098761|   -4.274190|   -4.284029|   -5.595363|
|          41|   -6.102551|   -4.264946|   -4.280572|   -5.591613|
|          42|   -6.105995|   -4.255775|   -4.278007|   -5.588005|
|          43|   -6.109201|   -4.246514|   -4.276089|   -5.584604|
|          44|   -6.112160|   -4.237129|   -4.274760|   -5.581501|
|          45|   -6.114841|   -4.227755|   -4.274289|   -5.578678|
|          46|   -6.117246|   -4.218792|   -4.275127|   -5.576060|
|          47|   -6.119358|   -4.210619|   -4.276968|   -5.573568|
|          48|   -6.121257|   -4.203531|   -4.278051|   -5.571150|
|          49|   -6.123143|   -4.197746|   -4.279668|   -5.568770|
|          50|   -6.124852|   -4.193302|   -4.281748|   -5.566451|
|          51|   -6.126266|   -4.190124|   -4.284261|   -5.564250|
|          52|   -6.127421|   -4.188005|   -4.287260|   -5.562217|
|          53|   -6.128246|   -4.186712|   -4.290769|   -5.560352|
|          54|   -6.128733|   -4.186047|   -4.294656|   -5.558545|
|          55|   -6.128830|   -4.185886|   -4.298681|   -5.556601|
|          56|   -6.128618|   -4.186115|   -4.302519|   -5.554295|
|          57|   -6.128138|   -4.186581|   -4.305858|   -5.551467|
|          58|   -6.127258|   -4.187065|   -4.308335|   -5.548066|
|          59|   -6.125677|   -4.187263|   -4.309662|   -5.544123|
|          60|   -6.123097|   -4.186760|   -4.309793|   -5.539679|
|          61|   -6.119259|   -4.185134|   -4.308531|   -5.534771|
|          62|   -6.114160|   -4.182111|   -4.305872|   -5.529416|
|          63|   -6.107848|   -4.177635|   -4.301729|   -5.523631|
|          64|   -6.100363|   -4.171896|   -4.296061|   -5.517408|
|          65|   -6.091534|   -4.165276|   -4.288501|   -5.510727|
|          66|   -6.081145|   -4.158191|   -4.278474|   -5.503519|
|          67|   -6.068922|   -4.150950|   -4.265394|   -5.495671|
|          68|   -6.054591|   -4.143619|   -4.248868|   -5.487030|
|          69|   -6.037975|   -4.136103|   -4.228974|   -5.477452|
|          70|   -6.019359|   -4.128344|   -4.206155|   -5.466948|
|          71|   -5.999645|   -4.120543|   -4.181219|   -5.455822|
|          72|   -5.978171|   -4.112598|   -4.155400|   -5.445131|
|          73|   -5.956263|   -4.104881|   -4.130863|   -5.436450|
|          74|   -5.936659|   -4.097322|   -4.110249|   -5.431242|
|          75|   -5.921986|   -4.089593|   -4.095904|   -5.430225|
|          76|   -5.913512|   -4.081429|   -4.089560|   -5.432963|
|          77|   -5.910433|   -4.073333|   -4.091750|   -5.438202|
|          78|   -5.911810|   -4.066410|   -4.099356|   -5.444451|
|          79|   -5.916840|   -4.061531|   -4.108371|   -5.450871|
|          80|   -5.923530|   -4.058473|   -4.117923|   -5.457324|
|          81|   -5.930911|   -4.056342|   -4.127834|   -5.463629|
|          82|   -5.937821|   -4.053635|   -4.137945|   -5.469310|
|          83|   -5.942303|   -4.049459|   -4.147339|   -5.473998|
|          84|   -5.942983|   -4.043876|   -4.155047|   -5.477277|
|          85|   -5.939157|   -4.036231|   -4.160614|   -5.478532|
|          86|   -5.931483|   -4.026662|   -4.163444|   -5.476906|
|          87|   -5.920441|   -4.016418|   -4.161425|   -5.471954|
|          88|   -5.907243|   -4.005796|   -4.150243|   -5.463645|
|          89|   -5.892079|   -3.995071|   -4.128236|   -5.452330|
|          90|   -5.871468|   -3.984778|   -4.098135|   -5.439838|
|          91|   -5.847410|   -3.975599|   -4.066343|   -5.428071|
|          92|   -5.823315|   -3.967990|   -4.039255|   -5.418990|
|          93|   -5.803476|   -3.962437|   -4.020057|   -5.413532|
|          94|   -5.790901|   -3.959045|   -4.009671|   -5.411394|
|          95|   -5.785342|   -3.957181|   -4.006489|   -5.412114|
|          96|   -5.784781|   -3.956364|   -4.007597|   -5.415237|
|          97|   -5.788219|   -3.955488|   -4.010657|   -5.420268|
|          98|   -5.795335|   -3.954440|   -4.015536|   -5.426632|
|          99|   -5.805810|   -3.953788|   -4.021959|   -5.433860|
|         100|   -5.819939|   -3.954091|   -4.030275|   -5.441461|
|         101|   -5.836394|   -3.955822|   -4.040821|   -5.448895|
|         102|   -5.854237|   -3.959352|   -4.053066|   -5.455674|
|         103|   -5.872314|   -3.964377|   -4.065973|   -5.461781|
|         104|   -5.889763|   -3.970150|   -4.078777|   -5.466710|
|         105|   -5.906178|   -3.976607|   -4.090895|   -5.469611|
|         106|   -5.920589|   -3.983737|   -4.101216|   -5.469793|
|         107|   -5.931315|   -3.991691|   -4.108198|   -5.466956|
|         108|   -5.935298|   -3.999889|   -4.111182|   -5.461654|
|         109|   -5.931970|   -4.007291|   -4.111055|   -5.454983|
|         110|   -5.923297|   -4.013038|   -4.109672|   -5.447367|
|         111|   -5.907640|   -4.017308|   -4.108213|   -5.440664|
|         112|   -5.895912|   -4.020296|   -4.106603|   -5.434590|
|         113|   -5.886171|   -4.021678|   -4.105917|   -5.429325|
|         114|   -5.878057|   -4.022466|   -4.106296|   -5.424937|
|         115|   -5.870755|   -4.023210|   -4.108084|   -5.421633|
|         116|   -5.864912|   -4.023911|   -4.111207|   -5.419624|
|         117|   -5.860358|   -4.025065|   -4.115671|   -5.419218|
|         118|   -5.857925|   -4.027056|   -4.121665|   -5.420420|
|         119|   -5.856736|   -4.030297|   -4.128254|   -5.423408|
|         120|   -5.858078|   -4.034855|   -4.134609|   -5.427932|
|         121|   -5.860875|   -4.040885|   -4.139860|   -5.433891|
|         122|   -5.864967|   -4.048436|   -4.142935|   -5.441136|
|         123|   -5.870203|   -4.057177|   -4.143466|   -5.449091|
|         124|   -5.876152|   -4.066730|   -4.142039|   -5.457280|
|         125|   -5.882012|   -4.076676|   -4.139011|   -5.465533|
|         126|   -5.887355|   -4.086447|   -4.134834|   -5.473677|
|         127|   -5.892304|   -4.095572|   -4.129917|   -5.481476|
|         128|   -5.896501|   -4.103655|   -4.124811|   -5.488828|
|         129|   -5.900366|   -4.110488|   -4.118476|   -5.495985|
|         130|   -5.909050|   -4.115325|   -4.112399|   -5.501821|
|         131|   -5.917327|   -4.119423|   -4.107766|   -5.506496|
|         132|   -5.924462|   -4.122834|   -4.104364|   -5.510199|
|         133|   -5.930144|   -4.125677|   -4.102171|   -5.513085|
|         134|   -5.934987|   -4.128198|   -4.101174|   -5.515350|
|         135|   -5.938939|   -4.130524|   -4.101195|   -5.517170|
|         136|   -5.942235|   -4.132615|   -4.102014|   -5.518809|
|         137|   -5.945211|   -4.134499|   -4.103477|   -5.520331|
|         138|   -5.948110|   -4.136043|   -4.105285|   -5.521766|
|         139|   -5.951176|   -4.137396|   -4.107205|   -5.522994|
|         140|   -5.954300|   -4.138662|   -4.109110|   -5.523999|
|         141|   -5.957348|   -4.139857|   -4.110833|   -5.524785|
|         142|   -5.959876|   -4.140978|   -4.112530|   -5.525428|
|         143|   -5.962016|   -4.141911|   -4.114159|   -5.525897|
|         144|   -5.963726|   -4.142797|   -4.115415|   -5.526223|
|         145|   -5.965176|   -4.143964|   -4.116114|   -5.526389|
|         146|   -5.966495|   -4.145123|   -4.116309|   -5.526457|
|         147|   -5.967806|   -4.146277|   -4.116006|   -5.526482|
|         148|   -5.969135|   -4.147541|   -4.115270|   -5.526562|
|         149|   -5.970779|   -4.148895|   -4.114249|   -5.526829|
|         150|   -5.973154|   -4.150465|   -4.113328|   -5.527304|
|         151|   -5.976243|   -4.152382|   -4.112914|   -5.527854|
|         152|   -5.980491|   -4.154457|   -4.112781|   -5.528321|
|         153|   -5.985096|   -4.156512|   -4.112513|   -5.528591|
|         154|   -5.989784|   -4.158605|   -4.112295|   -5.528615|
|         155|   -5.994032|   -4.160816|   -4.112375|   -5.528460|
|         156|   -5.997679|   -4.163030|   -4.112687|   -5.528141|
|         157|   -6.000453|   -4.165097|   -4.113221|   -5.527683|
|         158|   -6.002919|   -4.166930|   -4.113969|   -5.527059|
|         159|   -6.005098|   -4.168802|   -4.114935|   -5.526250|
|         160|   -6.006958|   -4.170660|   -4.116051|   -5.525220|
|         161|   -6.008348|   -4.172274|   -4.117208|   -5.524014|
|         162|   -6.009007|   -4.173610|   -4.118342|   -5.522677|
|         163|   -6.009100|   -4.174563|   -4.119375|   -5.521191|
|         164|   -6.009077|   -4.175160|   -4.120203|   -5.519507|
|         165|   -6.008681|   -4.175378|   -4.120745|   -5.517589|
|         166|   -6.008063|   -4.175151|   -4.120938|   -5.515418|
|         167|   -6.007252|   -4.174493|   -4.120767|   -5.513012|
|         168|   -6.006118|   -4.173271|   -4.120205|   -5.510403|
|         169|   -6.004732|   -4.171340|   -4.118843|   -5.507682|
|         170|   -6.003249|   -4.168611|   -4.116804|   -5.504866|
|         171|   -6.001651|   -4.165317|   -4.114323|   -5.501992|
|         172|   -5.999969|   -4.161561|   -4.111576|   -5.499046|
|         173|   -5.998402|   -4.157549|   -4.108683|   -5.496022|
|         174|   -5.997062|   -4.153534|   -4.105698|   -5.492932|
|         175|   -5.995674|   -4.149145|   -4.102612|   -5.489776|
|         176|   -5.994298|   -4.144215|   -4.099470|   -5.486628|
|         177|   -5.993046|   -4.138941|   -4.096287|   -5.483514|
|         178|   -5.992129|   -4.133305|   -4.092760|   -5.480460|
|         179|   -5.991741|   -4.127378|   -4.089105|   -5.477470|
|         180|   -5.991879|   -4.121255|   -4.085440|   -5.474545|
|         181|   -5.992456|   -4.115333|   -4.081685|   -5.471667|
|         182|   -5.993602|   -4.109646|   -4.077602|   -5.468809|
|         183|   -5.995069|   -4.104047|   -4.073254|   -5.465962|
|         184|   -5.996697|   -4.098704|   -4.068641|   -5.463161|
|         185|   -5.998456|   -4.093734|   -4.063822|   -5.460453|
|         186|   -6.000332|   -4.088985|   -4.058877|   -5.457859|
|         187|   -6.002392|   -4.084463|   -4.053975|   -5.455359|
|         188|   -6.004666|   -4.080371|   -4.049218|   -5.452916|
|         189|   -6.007196|   -4.076786|   -4.044723|   -5.450512|
|         190|   -6.009927|   -4.073641|   -4.040553|   -5.448138|
|         191|   -6.012501|   -4.070908|   -4.036728|   -5.445821|
|         192|   -6.014957|   -4.068401|   -4.033238|   -5.443593|
|         193|   -6.017279|   -4.066075|   -4.030031|   -5.441487|
|         194|   -6.019600|   -4.063925|   -4.027201|   -5.439519|
|         195|   -6.021697|   -4.061899|   -4.024749|   -5.437714|
|         196|   -6.023804|   -4.060077|   -4.022813|   -5.436075|
|         197|   -6.025967|   -4.058531|   -4.021416|   -5.434604|
|         198|   -6.028160|   -4.057180|   -4.020526|   -5.433285|
|         199|   -6.030345|   -4.055954|   -4.019976|   -5.432121|
|         200|   -6.032677|   -4.054878|   -4.019633|   -5.431126|
|         201|   -6.034875|   -4.053932|   -4.019367|   -5.430328|
|         202|   -6.037158|   -4.053072|   -4.019091|   -5.429750|
|         203|   -6.039474|   -4.052276|   -4.018866|   -5.429373|
|         204|   -6.041750|   -4.051606|   -4.018778|   -5.429194|
|         205|   -6.044233|   -4.051109|   -4.018925|   -5.429205|
|         206|   -6.046746|   -4.050795|   -4.019123|   -5.429391|
|         207|   -6.049215|   -4.050624|   -4.019405|   -5.429758|
|         208|   -6.051609|   -4.050522|   -4.019498|   -5.430297|
|         209|   -6.053991|   -4.050363|   -4.019518|   -5.431009|
|         210|   -6.056316|   -4.050130|   -4.019273|   -5.431895|
|         211|   -6.058687|   -4.049757|   -4.019043|   -5.432977|
|         212|   -6.061149|   -4.049294|   -4.018778|   -5.434255|
|         213|   -6.063732|   -4.048679|   -4.018742|   -5.435739|
|         214|   -6.066538|   -4.047949|   -4.018824|   -5.437420|
|         215|   -6.069688|   -4.047143|   -4.019062|   -5.439262|
|         216|   -6.073487|   -4.046217|   -4.019490|   -5.441244|
|         217|   -6.077806|   -4.045145|   -4.020021|   -5.443369|
|         218|   -6.082482|   -4.043986|   -4.020631|   -5.445638|
|         219|   -6.087596|   -4.042707|   -4.021316|   -5.448044|
|         220|   -6.093184|   -4.041197|   -4.022047|   -5.450573|
|         221|   -6.099283|   -4.039433|   -4.022887|   -5.453219|
|         222|   -6.105759|   -4.037532|   -4.023945|   -5.455969|
|         223|   -6.112636|   -4.035569|   -4.025290|   -5.458818|
|         224|   -6.119843|   -4.033534|   -4.026972|   -5.461755|
|         225|   -6.127336|   -4.031427|   -4.029047|   -5.464777|
|         226|   -6.135037|   -4.029262|   -4.031574|   -5.467884|
|         227|   -6.142780|   -4.027052|   -4.034472|   -5.471074|
|         228|   -6.150500|   -4.024803|   -4.037691|   -5.474343|
|         229|   -6.158345|   -4.022556|   -4.041285|   -5.477697|
|         230|   -6.166215|   -4.020361|   -4.045134|   -5.481139|
|         231|   -6.174117|   -4.018198|   -4.049256|   -5.484665|
|         232|   -6.182171|   -4.016054|   -4.053699|   -5.488282|
|         233|   -6.190550|   -4.014003|   -4.058370|   -5.491984|
|         234|   -6.199260|   -4.012115|   -4.063268|   -5.495756|
|         235|   -6.208254|   -4.010406|   -4.068417|   -5.499597|
|         236|   -6.217586|   -4.008864|   -4.073764|   -5.503507|
|         237|   -6.227376|   -4.007506|   -4.079217|   -5.507468|
|         238|   -6.237500|   -4.006299|   -4.084730|   -5.511473|
|         239|   -6.247705|   -4.005211|   -4.090185|   -5.515520|
|         240|   -6.258068|   -4.004211|   -4.095524|   -5.519600|
|         241|   -6.268249|   -4.003275|   -4.100799|   -5.523709|
|         242|   -6.278151|   -4.002402|   -4.105911|   -5.527839|
|         243|   -6.287584|   -4.001579|   -4.110869|   -5.531990|
|         244|   -6.296457|   -4.000811|   -4.115657|   -5.536154|
|         245|   -6.304603|   -4.000086|   -4.120250|   -5.540330|
|         246|   -6.311976|   -3.999401|   -4.124654|   -5.544514|
|         247|   -6.318594|   -3.998770|   -4.128856|   -5.548702|
|         248|   -6.324510|   -3.998206|   -4.132815|   -5.552891|
|         249|   -6.329660|   -3.997674|   -4.136484|   -5.557084|
|         250|   -6.334238|   -3.997116|   -4.139727|   -5.561283|
|         251|   -6.338582|   -3.996526|   -4.142723|   -5.565482|
|         252|   -6.342597|   -3.995913|   -4.145579|   -5.569684|
|         253|   -6.346318|   -3.995272|   -4.148275|   -5.573891|
|         254|   -6.349950|   -3.994573|   -4.150701|   -5.578102|
|         255|   -6.353688|   -3.993786|   -4.152884|   -5.582312|
|         256|   -6.357503|   -3.992913|   -4.154859|   -5.586514|
|         257|   -6.361492|   -3.991947|   -4.156683|   -5.590701|
|         258|   -6.365648|   -3.990902|   -4.158424|   -5.594862|
|         259|   -6.369860|   -3.989775|   -4.160113|   -5.598994|
|         260|   -6.374094|   -3.988543|   -4.161817|   -5.603079|
|         261|   -6.378274|   -3.987201|   -4.163531|   -5.607128|
|         262|   -6.382292|   -3.985719|   -4.165284|   -5.611117|
|         263|   -6.386007|   -3.984101|   -4.167046|   -5.615058|
|         264|   -6.389374|   -3.982354|   -4.168765|   -5.618928|
|         265|   -6.392357|   -3.980530|   -4.170344|   -5.622735|
|         266|   -6.394788|   -3.978689|   -4.171714|   -5.626458|
|         267|   -6.396682|   -3.976886|   -4.172803|   -5.630102|
|         268|   -6.397923|   -3.975180|   -4.173554|   -5.633649|
|         269|   -6.398525|   -3.973626|   -4.173834|   -5.637100|
|         270|   -6.398559|   -3.972272|   -4.173531|   -5.640445|
|         271|   -6.397984|   -3.971182|   -4.172672|   -5.643676|
|         272|   -6.397241|   -3.970348|   -4.171458|   -5.646834|
|         273|   -6.395958|   -3.969742|   -4.170022|   -5.649880|
|         274|   -6.394513|   -3.969271|   -4.168446|   -5.652898|
|         275|   -6.393288|   -3.968978|   -4.166832|   -5.655843|
|         276|   -6.392693|   -3.968928|   -4.165294|   -5.658784|
|         277|   -6.392596|   -3.969198|   -4.163997|   -5.661682|
|         278|   -6.393245|   -3.969803|   -4.163061|   -5.664598|
|         279|   -6.394413|   -3.970712|   -4.162659|   -5.667482|
|         280|   -6.396072|   -3.971856|   -4.162915|   -5.670414|
|         281|   -6.397944|   -3.973232|   -4.163866|   -5.673339|
|         282|   -6.400037|   -3.974810|   -4.165525|   -5.676343|
|         283|   -6.402093|   -3.976600|   -4.167795|   -5.679406|
|         284|   -6.403754|   -3.978532|   -4.170635|   -5.682546|
|         285|   -6.404997|   -3.980562|   -4.173972|   -5.685806|
|         286|   -6.405675|   -3.982644|   -4.177742|   -5.689179|
|         287|   -6.405600|   -3.984705|   -4.181838|   -5.692657|
|         288|   -6.404750|   -3.986680|   -4.186191|   -5.696238|
|         289|   -6.402997|   -3.988484|   -4.190675|   -5.699899|
|         290|   -6.400238|   -3.990011|   -4.195045|   -5.703605|
|         291|   -6.396511|   -3.991147|   -4.198973|   -5.707309|
|         292|   -6.391734|   -3.991783|   -4.202111|   -5.710948|
|         293|   -6.385879|   -3.991834|   -4.204024|   -5.714465|
|         294|   -6.379054|   -3.991220|   -4.204238|   -5.717772|
|         295|   -6.371532|   -3.989926|   -4.202414|   -5.720825|
|         296|   -6.363392|   -3.988125|   -4.198180|   -5.723540|
|         297|   -6.354386|   -3.985979|   -4.191495|   -5.725840|
|         298|   -6.344707|   -3.983744|   -4.182667|   -5.727737|
|         299|   -6.334662|   -3.981652|   -4.172181|   -5.729232|
|         300|   -6.324361|   -3.979863|   -4.160636|   -5.730342|
|         301|   -6.313805|   -3.978503|   -4.148554|   -5.731096|
|         302|   -6.303275|   -3.977634|   -4.136419|   -5.731541|
|         303|   -6.292916|   -3.977311|   -4.124648|   -5.731730|
|         304|   -6.282962|   -3.977610|   -4.113624|   -5.731707|
|         305|   -6.273400|   -3.978526|   -4.103519|   -5.731519|
|         306|   -6.264183|   -3.980024|   -4.094291|   -5.731226|
|         307|   -6.255226|   -3.982109|   -4.086097|   -5.730889|
|         308|   -6.246394|   -3.984829|   -4.079183|   -5.730564|
|         309|   -6.237636|   -3.988215|   -4.073572|   -5.730309|
|         310|   -6.228878|   -3.992265|   -4.069262|   -5.730146|
|         311|   -6.219990|   -3.996965|   -4.066206|   -5.730082|
|         312|   -6.210930|   -4.002266|   -4.064345|   -5.730126|
|         313|   -6.201741|   -4.008107|   -4.063566|   -5.730269|
|         314|   -6.192337|   -4.014444|   -4.063806|   -5.730563|
|         315|   -6.182709|   -4.021244|   -4.065051|   -5.731051|
|         316|   -6.172835|   -4.028469|   -4.067324|   -5.731830|
|         317|   -6.162867|   -4.036090|   -4.070723|   -5.732993|
|         318|   -6.152926|   -4.044134|   -4.075354|   -5.734644|
|         319|   -6.143108|   -4.052623|   -4.081212|   -5.736884|
|         320|   -6.133659|   -4.061494|   -4.088116|   -5.739810|
|         321|   -6.124721|   -4.070736|   -4.095828|   -5.743457|
|         322|   -6.117546|   -4.080142|   -4.103023|   -5.748011|
|         323|   -6.112392|   -4.089640|   -4.109698|   -5.753114|
|         324|   -6.108124|   -4.098951|   -4.116484|   -5.758604|
|         325|   -6.103823|   -4.107878|   -4.123493|   -5.764436|
|         326|   -6.099153|   -4.116259|   -4.130508|   -5.770553|
|         327|   -6.094133|   -4.123944|   -4.137347|   -5.776877|
|         328|   -6.088868|   -4.130863|   -4.143789|   -5.783327|
|         329|   -6.083622|   -4.137029|   -4.149736|   -5.789822|
|         330|   -6.078349|   -4.142461|   -4.154966|   -5.796296|
|         331|   -6.073041|   -4.147261|   -4.159287|   -5.802696|
|         332|   -6.067624|   -4.151603|   -4.162551|   -5.808984|
|         333|   -6.062121|   -4.155654|   -4.164773|   -5.815144|
|         334|   -6.056542|   -4.159585|   -4.166075|   -5.821170|
|         335|   -6.050976|   -4.163538|   -4.166619|   -5.827064|
|         336|   -6.045528|   -4.167669|   -4.166650|   -5.832837|
|         337|   -6.040301|   -4.172081|   -4.166382|   -5.838510|
|         338|   -6.035389|   -4.176859|   -4.166056|   -5.844099|
|         339|   -6.030897|   -4.182049|   -4.165881|   -5.849600|
|         340|   -6.026854|   -4.187649|   -4.166029|   -5.854993|
|         341|   -6.023272|   -4.193602|   -4.166672|   -5.860241|
|         342|   -6.020201|   -4.199845|   -4.168019|   -5.865277|
|         343|   -6.017614|   -4.206267|   -4.170189|   -5.870015|
|         344|   -6.015412|   -4.212717|   -4.173168|   -5.874356|
|         345|   -6.013460|   -4.219047|   -4.176782|   -5.878196|
|         346|   -6.011611|   -4.225168|   -4.180755|   -5.881265|
|         347|   -6.009893|   -4.231056|   -4.182246|   -5.882549|
|         348|   -6.008052|   -4.236760|   -4.182861|   -5.882209|
|         349|   -6.006421|   -4.242362|   -4.183200|   -5.880640|
|         350|   -6.004968|   -4.247874|   -4.183374|   -5.878592|
|         351|   -6.003507|   -4.253217|   -4.183288|   -5.877032|
|         352|   -6.001939|   -4.258325|   -4.182911|   -5.875072|
|         353|   -6.000245|   -4.263137|   -4.182255|   -5.872569|
|         354|   -5.998478|   -4.267555|   -4.181387|   -5.869741|
|         355|   -5.996722|   -4.271532|   -4.180382|   -5.866571|
|         356|   -5.995049|   -4.275099|   -4.179389|   -5.863192|
|         357|   -5.993491|   -4.278308|   -4.178568|   -5.859786|
|         358|   -5.992044|   -4.281214|   -4.177992|   -5.856403|
|         359|   -5.990682|   -4.283848|   -4.177663|   -5.853128|
|         360|   -5.989389|   -4.286182|   -4.177533|   -5.850047|
|         361|   -5.988160|   -4.288137|   -4.177562|   -5.847170|
|         362|   -5.986999|   -4.289665|   -4.177688|   -5.844525|
|         363|   -5.985886|   -4.290802|   -4.177823|   -5.842124|
|         364|   -5.984791|   -4.291626|   -4.177891|   -5.839952|
|         365|   -5.983703|   -4.292214|   -4.177856|   -5.837958|
|         366|   -5.982611|   -4.292589|   -4.177684|   -5.836096|
|         367|   -5.981497|   -4.292783|   -4.177319|   -5.834330|
|         368|   -5.980324|   -4.292877|   -4.176700|   -5.832651|
|         369|   -5.979158|   -4.292940|   -4.175931|   -5.831061|
|         370|   -5.977982|   -4.293029|   -4.175006|   -5.829589|
|         371|   -5.976873|   -4.293216|   -4.174055|   -5.828310|
|         372|   -5.975833|   -4.293593|   -4.173070|   -5.827320|
|         373|   -5.974901|   -4.294235|   -4.172101|   -5.826729|
|         374|   -5.974248|   -4.295191|   -4.171365|   -5.826526|
|         375|   -5.973871|   -4.296441|   -4.170904|   -5.826728|
|         376|   -5.973767|   -4.297924|   -4.170754|   -5.827358|
|         377|   -5.974017|   -4.299557|   -4.171079|   -5.828375|
|         378|   -5.974517|   -4.301198|   -4.171741|   -5.829746|
|         379|   -5.975440|   -4.302700|   -4.173053|   -5.831384|
|         380|   -5.976590|   -4.303894|   -4.174688|   -5.833228|
|         381|   -5.977984|   -4.304640|   -4.176687|   -5.835272|
|         382|   -5.979610|   -4.304852|   -4.179035|   -5.837475|
|         383|   -5.981455|   -4.304512|   -4.181716|   -5.839794|
|         384|   -5.983484|   -4.303612|   -4.184662|   -5.842188|
|         385|   -5.985683|   -4.302144|   -4.187814|   -5.844631|
|         386|   -5.988023|   -4.300099|   -4.191101|   -5.847130|
|         387|   -5.990493|   -4.297499|   -4.194477|   -5.849671|
|         388|   -5.993079|   -4.294398|   -4.197888|   -5.852242|
|         389|   -5.995774|   -4.290905|   -4.201310|   -5.854754|
|         390|   -5.998573|   -4.287147|   -4.204717|   -5.857134|
|         391|   -6.001479|   -4.283221|   -4.208059|   -5.859257|
|         392|   -6.004485|   -4.279256|   -4.211363|   -5.861027|
|         393|   -6.007559|   -4.275399|   -4.214648|   -5.862360|
|         394|   -6.010686|   -4.271754|   -4.217982|   -5.863181|
|         395|   -6.013814|   -4.268419|   -4.221339|   -5.863425|
|         396|   -6.016910|   -4.265467|   -4.224714|   -5.863042|
|         397|   -6.019888|   -4.262963|   -4.227952|   -5.862023|
|         398|   -6.022769|   -4.260892|   -4.231037|   -5.860434|
|         399|   -6.025587|   -4.259214|   -4.233949|   -5.858433|
|         400|   -6.028347|   -4.257905|   -4.236660|   -5.856203|
|         401|   -6.031160|   -4.256880|   -4.236411|   -5.853909|
|         402|   -6.033625|   -4.255997|   -4.233253|   -5.851583|
|         403|   -6.035984|   -4.254978|   -4.230025|   -5.849213|
|         404|   -6.038655|   -4.253497|   -4.227544|   -5.846830|
|         405|   -6.041565|   -4.251437|   -4.226173|   -5.844420|
|         406|   -6.044713|   -4.249020|   -4.226085|   -5.841959|
|         407|   -6.047947|   -4.246584|   -4.226883|   -5.839438|
|         408|   -6.051191|   -4.244343|   -4.227987|   -5.836851|
|         409|   -6.054350|   -4.242335|   -4.229595|   -5.834188|
|         410|   -6.057415|   -4.240530|   -4.231809|   -5.831447|
|         411|   -6.060379|   -4.238913|   -4.234749|   -5.828642|
|         412|   -6.063271|   -4.237543|   -4.238561|   -5.825764|
|         413|   -6.066162|   -4.236318|   -4.242786|   -5.822848|
|         414|   -6.069085|   -4.235150|   -4.247602|   -5.819874|
|         415|   -6.072131|   -4.233929|   -4.253380|   -5.816853|
|         416|   -6.075371|   -4.232372|   -4.259211|   -5.813843|
|         417|   -6.078653|   -4.230445|   -4.265344|   -5.810850|
|         418|   -6.082058|   -4.228095|   -4.271730|   -5.807834|
|         419|   -6.085391|   -4.225296|   -4.278114|   -5.804841|
|         420|   -6.088705|   -4.222124|   -4.284277|   -5.801899|
|         421|   -6.091880|   -4.218577|   -4.290003|   -5.799064|
|         422|   -6.095003|   -4.214675|   -4.295103|   -5.796288|
|         423|   -6.098086|   -4.210415|   -4.299498|   -5.793512|
|         424|   -6.101160|   -4.205767|   -4.303152|   -5.790752|
|         425|   -6.104168|   -4.200757|   -4.306095|   -5.788015|
|         426|   -6.107168|   -4.195370|   -4.308444|   -5.785314|
|         427|   -6.110185|   -4.189634|   -4.310290|   -5.782672|
|         428|   -6.113136|   -4.183548|   -4.311668|   -5.780138|
|         429|   -6.116045|   -4.177150|   -4.312552|   -5.777761|
|         430|   -6.118898|   -4.170488|   -4.312838|   -5.775612|
|         431|   -6.121680|   -4.163637|   -4.312430|   -5.773643|
|         432|   -6.124411|   -4.156671|   -4.311248|   -5.771793|
|         433|   -6.127059|   -4.149670|   -4.309211|   -5.769956|
|         434|   -6.129618|   -4.142638|   -4.306252|   -5.768025|
|         435|   -6.132070|   -4.135609|   -4.302259|   -5.765891|
|         436|   -6.134394|   -4.128626|   -4.297032|   -5.763441|
|         437|   -6.136668|   -4.121730|   -4.290378|   -5.760572|
|         438|   -6.138828|   -4.115019|   -4.282738|   -5.757097|
|         439|   -6.140742|   -4.108515|   -4.274352|   -5.752954|
|         440|   -6.142378|   -4.102278|   -4.265410|   -5.748045|
|         441|   -6.143433|   -4.096361|   -4.256154|   -5.742435|
|         442|   -6.144145|   -4.090770|   -4.246652|   -5.736229|
|         443|   -6.144651|   -4.085460|   -4.236819|   -5.729651|
|         444|   -6.145191|   -4.080524|   -4.227077|   -5.722755|
|         445|   -6.145183|   -4.075951|   -4.217751|   -5.715785|
|         446|   -6.144658|   -4.071791|   -4.208977|   -5.709038|
|         447|   -6.143998|   -4.068029|   -4.200862|   -5.702716|
|         448|   -6.143408|   -4.064571|   -4.193435|   -5.696919|
|         449|   -6.142844|   -4.061249|   -4.186764|   -5.691706|
|         450|   -6.142394|   -4.057967|   -4.180446|   -5.687278|
|         451|   -6.142621|   -4.054779|   -4.174518|   -5.683642|
|         452|   -6.142759|   -4.051646|   -4.169263|   -5.680815|
|         453|   -6.142303|   -4.048501|   -4.164610|   -5.678831|
|         454|   -6.141331|   -4.045225|   -4.160524|   -5.677684|
|         455|   -6.140205|   -4.041760|   -4.156998|   -5.677437|
|         456|   -6.139706|   -4.038306|   -4.154704|   -5.677975|
|         457|   -6.140340|   -4.035197|   -4.154543|   -5.679169|
|         458|   -6.143427|   -4.032662|   -4.156852|   -5.680923|
|         459|   -6.150162|   -4.030945|   -4.162085|   -5.682954|
|         460|   -6.160061|   -4.030892|   -4.170131|   -5.684935|
|         461|   -6.173212|   -4.032416|   -4.180149|   -5.686695|
|         462|   -6.188244|   -4.034383|   -4.190351|   -5.688158|
|         463|   -6.202098|   -4.035822|   -4.199328|   -5.689298|
|         464|   -6.213417|   -4.036718|   -4.206847|   -5.690132|
|         465|   -6.223403|   -4.037298|   -4.212888|   -5.690645|
|         466|   -6.232551|   -4.037636|   -4.217901|   -5.690789|
|         467|   -6.240515|   -4.037841|   -4.222440|   -5.690557|
|         468|   -6.247066|   -4.037987|   -4.226955|   -5.689951|
|         469|   -6.252451|   -4.038085|   -4.231709|   -5.688997|
|         470|   -6.257156|   -4.038222|   -4.236893|   -5.687726|
|         471|   -6.261490|   -4.038393|   -4.242569|   -5.686187|
|         472|   -6.265422|   -4.038561|   -4.248521|   -5.684434|
|         473|   -6.268879|   -4.038651|   -4.254405|   -5.682516|
|         474|   -6.271711|   -4.038617|   -4.259855|   -5.680473|
|         475|   -6.273766|   -4.038442|   -4.264541|   -5.678327|
|         476|   -6.274856|   -4.038123|   -4.268243|   -5.676096|
|         477|   -6.274636|   -4.037631|   -4.270847|   -5.673798|
|         478|   -6.272937|   -4.036902|   -4.272165|   -5.671491|
|         479|   -6.270261|   -4.035902|   -4.272287|   -5.669223|
|         480|   -6.266764|   -4.034659|   -4.271437|   -5.667018|
|         481|   -6.262183|   -4.033168|   -4.269868|   -5.664871|
|         482|   -6.256703|   -4.031370|   -4.267696|   -5.662786|
|         483|   -6.251088|   -4.029317|   -4.265343|   -5.660771|
|         484|   -6.245720|   -4.027425|   -4.262900|   -5.658893|
|         485|   -6.240752|   -4.026212|   -4.259343|   -5.657285|
|         486|   -6.234348|   -4.025521|   -4.255548|   -5.656041|
|         487|   -6.228580|   -4.024670|   -4.255058|   -5.655222|
|         488|   -6.224532|   -4.023779|   -4.256822|   -5.654932|
|         489|   -6.222318|   -4.023677|   -4.259311|   -5.655176|
|         490|   -6.222096|   -4.025047|   -4.262123|   -5.655863|
|         491|   -6.222024|   -4.027464|   -4.265174|   -5.656973|
|         492|   -6.222275|   -4.029906|   -4.267860|   -5.658417|
|         493|   -6.222140|   -4.032466|   -4.269798|   -5.660011|
|         494|   -6.220895|   -4.035457|   -4.271302|   -5.661619|
|         495|   -6.218099|   -4.038810|   -4.271877|   -5.663253|
|         496|   -6.213749|   -4.042184|   -4.271626|   -5.665011|
|         497|   -6.208532|   -4.045207|   -4.270467|   -5.666937|
|         498|   -6.203416|   -4.047911|   -4.268438|   -5.668924|
|         499|   -6.198489|   -4.050597|   -4.265920|   -5.670800|
|         500|   -6.193583|   -4.053455|   -4.263609|   -5.672422|
|         501|   -6.188704|   -4.056525|   -4.261237|   -5.673794|
|         502|   -6.184350|   -4.059515|   -4.257128|   -5.675007|
|         503|   -6.181702|   -4.062239|   -4.252539|   -5.676107|
|         504|   -6.179826|   -4.064455|   -4.248113|   -5.677216|
|         505|   -6.178235|   -4.066343|   -4.243931|   -5.678388|
|         506|   -6.177093|   -4.068160|   -4.239947|   -5.679636|
|         507|   -6.176533|   -4.070192|   -4.236413|   -5.680938|
|         508|   -6.176243|   -4.072642|   -4.233508|   -5.682260|
|         509|   -6.175800|   -4.075631|   -4.231018|   -5.683571|
|         510|   -6.174829|   -4.079234|   -4.228642|   -5.684850|
|         511|   -6.173157|   -4.083434|   -4.226036|   -5.686074|
|         512|   -6.170760|   -4.088140|   -4.222887|   -5.687243|
|         513|   -6.167792|   -4.093190|   -4.219072|   -5.688360|
|         514|   -6.164458|   -4.098386|   -4.214598|   -5.689433|
|         515|   -6.161033|   -4.103508|   -4.209581|   -5.690461|
|         516|   -6.157754|   -4.108400|   -4.204231|   -5.691449|
|         517|   -6.154829|   -4.112971|   -4.198786|   -5.692399|
|         518|   -6.152397|   -4.117168|   -4.193467|   -5.693314|
|         519|   -6.150502|   -4.120968|   -4.188421|   -5.694199|
|         520|   -6.149101|   -4.124347|   -4.183751|   -5.695058|
|         521|   -6.148051|   -4.127261|   -4.179481|   -5.695899|
|         522|   -6.147160|   -4.129651|   -4.175602|   -5.696733|
|         523|   -6.146248|   -4.131473|   -4.172160|   -5.697570|
|         524|   -6.145122|   -4.132714|   -4.169186|   -5.698421|
|         525|   -6.143602|   -4.133412|   -4.166709|   -5.699296|
|         526|   -6.141583|   -4.133673|   -4.164779|   -5.700203|
|         527|   -6.139032|   -4.133654|   -4.163458|   -5.701148|
|         528|   -6.136002|   -4.133528|   -4.162779|   -5.702134|
|         529|   -6.132613|   -4.133404|   -4.162688|   -5.703162|
|         530|   -6.129041|   -4.133305|   -4.163062|   -5.704234|
|         531|   -6.125544|   -4.133196|   -4.163739|   -5.705350|
|         532|   -6.122558|   -4.132982|   -4.164601|   -5.706512|
|         533|   -6.120572|   -4.132816|   -4.165427|   -5.707714|
|         534|   -6.120000|   -4.133441|   -4.166166|   -5.708963|
|         535|   -6.121146|   -4.136081|   -4.166668|   -5.710247|
|         536|   -6.123722|   -4.141441|   -4.166750|   -5.711565|
|         537|   -6.126842|   -4.148451|   -4.166933|   -5.712909|
|         538|   -6.129796|   -4.156321|   -4.167943|   -5.714283|
|         539|   -6.132182|   -4.164474|   -4.169800|   -5.715682|
|         540|   -6.133950|   -4.172035|   -4.172170|   -5.717091|
|         541|   -6.135237|   -4.178212|   -4.174787|   -5.718492|
|         542|   -6.136188|   -4.182914|   -4.177598|   -5.719871|
|         543|   -6.136911|   -4.186644|   -4.180075|   -5.721222|
|         544|   -6.137574|   -4.189914|   -4.182056|   -5.722532|
|         545|   -6.138141|   -4.193031|   -4.183384|   -5.723791|
|         546|   -6.138650|   -4.196127|   -4.184144|   -5.724988|
|         547|   -6.139090|   -4.199250|   -4.184478|   -5.726116|
|         548|   -6.139518|   -4.202443|   -4.184636|   -5.727172|
|         549|   -6.139927|   -4.205677|   -4.184691|   -5.728155|
|         550|   -6.140296|   -4.208901|   -4.184603|   -5.729072|
|         551|   -6.140659|   -4.212059|   -4.184430|   -5.729934|
|         552|   -6.141105|   -4.215097|   -4.184382|   -5.730753|
|         553|   -6.141545|   -4.217965|   -4.184261|   -5.731544|
|         554|   -6.142021|   -4.220626|   -4.184116|   -5.732322|
|         555|   -6.142561|   -4.223043|   -4.183992|   -5.733101|
|         556|   -6.143177|   -4.225189|   -4.183925|   -5.733897|
|         557|   -6.143897|   -4.227043|   -4.183978|   -5.734722|
|         558|   -6.144664|   -4.228587|   -4.184022|   -5.735586|
|         559|   -6.145485|   -4.229811|   -4.184058|   -5.736495|
|         560|   -6.146461|   -4.230719|   -4.184316|   -5.737451|
|         561|   -6.147484|   -4.231311|   -4.184583|   -5.738456|
|         562|   -6.148563|   -4.231607|   -4.184856|   -5.739504|
|         563|   -6.149822|   -4.231627|   -4.185400|   -5.740591|
|         564|   -6.151132|   -4.231391|   -4.185961|   -5.741711|
|         565|   -6.152536|   -4.230923|   -4.186619|   -5.742861|
|         566|   -6.154067|   -4.230240|   -4.187445|   -5.744038|
|         567|   -6.155672|   -4.229360|   -4.188340|   -5.745243|
|         568|   -6.157369|   -4.228301|   -4.189344|   -5.746480|
|         569|   -6.159173|   -4.227075|   -4.190493|   -5.747756|
|         570|   -6.161029|   -4.225692|   -4.191685|   -5.749077|
|         571|   -6.163000|   -4.224158|   -4.193060|   -5.750456|
|         572|   -6.165016|   -4.222476|   -4.194470|   -5.751900|
|         573|   -6.167107|   -4.220649|   -4.195981|   -5.753420|
|         574|   -6.169320|   -4.218679|   -4.197687|   -5.755026|
|         575|   -6.171546|   -4.216569|   -4.199347|   -5.756717|
|         576|   -6.173940|   -4.214327|   -4.201293|   -5.758503|
|         577|   -6.176407|   -4.211963|   -4.203319|   -5.760387|
|         578|   -6.178921|   -4.209496|   -4.205313|   -5.762366|
|         579|   -6.181618|   -4.206936|   -4.207600|   -5.764442|
|         580|   -6.184364|   -4.204302|   -4.209877|   -5.766611|
|         581|   -6.187275|   -4.201599|   -4.212392|   -5.768873|
|         582|   -6.190285|   -4.198843|   -4.214985|   -5.771223|
|         583|   -6.193423|   -4.196041|   -4.217717|   -5.773663|
|         584|   -6.196676|   -4.193205|   -4.220545|   -5.776186|
|         585|   -6.200093|   -4.190338|   -4.223579|   -5.778793|
|         586|   -6.203598|   -4.187451|   -4.226644|   -5.781479|
|         587|   -6.207283|   -4.184544|   -4.229946|   -5.784245|
|         588|   -6.211093|   -4.181623|   -4.233357|   -5.787087|
|         589|   -6.215007|   -4.178695|   -4.236842|   -5.790004|
|         590|   -6.219051|   -4.175765|   -4.240451|   -5.792994|
|         591|   -6.223235|   -4.172835|   -4.244216|   -5.796056|
|         592|   -6.227491|   -4.169914|   -4.247990|   -5.799188|
|         593|   -6.231957|   -4.167009|   -4.252071|   -5.802385|
|         594|   -6.236475|   -4.164128|   -4.256138|   -5.805648|
|         595|   -6.241124|   -4.161282|   -4.260350|   -5.808975|
|         596|   -6.245900|   -4.158466|   -4.264281|   -5.812363|
|         597|   -6.250765|   -4.155678|   -4.267965|   -5.815804|
|         598|   -6.255732|   -4.152924|   -4.271735|   -5.819297|
|         599|   -6.260842|   -4.150205|   -4.275661|   -5.822841|
|         600|   -6.266236|   -4.147529|   -4.280020|   -5.826435|
|         601|   -6.271741|   -4.144896|   -4.284469|   -5.830077|
|         602|   -6.277536|   -4.142310|   -4.289363|   -5.833768|
|         603|   -6.283542|   -4.139775|   -4.294547|   -5.837505|
|         604|   -6.289735|   -4.137295|   -4.299954|   -5.841289|
|         605|   -6.296193|   -4.134875|   -4.305731|   -5.845120|
|         606|   -6.302903|   -4.132516|   -4.311838|   -5.848997|
|         607|   -6.309923|   -4.130224|   -4.318362|   -5.852921|
|         608|   -6.317295|   -4.128002|   -4.325375|   -5.856890|
|         609|   -6.324982|   -4.125855|   -4.332785|   -5.860904|
|         610|   -6.333063|   -4.123793|   -4.340718|   -5.864962|
|         611|   -6.341523|   -4.121817|   -4.349134|   -5.869065|
|         612|   -6.350369|   -4.119932|   -4.358013|   -5.873215|
|         613|   -6.359739|   -4.118142|   -4.367625|   -5.877408|
|         614|   -6.369465|   -4.116450|   -4.377590|   -5.881648|
|         615|   -6.379722|   -4.114859|   -4.388282|   -5.885933|
|         616|   -6.390360|   -4.113374|   -4.399364|   -5.890266|
|         617|   -6.401512|   -4.112001|   -4.411095|   -5.894644|
|         618|   -6.413032|   -4.110746|   -4.423179|   -5.899072|
|         619|   -6.425097|   -4.109614|   -4.435973|   -5.903549|
|         620|   -6.437569|   -4.108606|   -4.449227|   -5.908075|
|         621|   -6.450393|   -4.107728|   -4.462817|   -5.912652|
|         622|   -6.463606|   -4.106981|   -4.476841|   -5.917278|
|         623|   -6.477031|   -4.106368|   -4.490969|   -5.921958|
|         624|   -6.490791|   -4.105887|   -4.505537|   -5.926690|
|         625|   -6.504613|   -4.105541|   -4.520041|   -5.931476|
|         626|   -6.518417|   -4.105331|   -4.534417|   -5.936315|
|         627|   -6.532106|   -4.105260|   -4.548569|   -5.941207|
|         628|   -6.545492|   -4.105325|   -4.562290|   -5.946153|
|         629|   -6.558436|   -4.105526|   -4.575430|   -5.951154|
|         630|   -6.570710|   -4.105859|   -4.587737|   -5.956209|
|         631|   -6.582175|   -4.106320|   -4.599082|   -5.961317|
|         632|   -6.592572|   -4.106904|   -4.609174|   -5.966480|
|         633|   -6.601794|   -4.107609|   -4.617930|   -5.971694|
|         634|   -6.609607|   -4.108426|   -4.625107|   -5.976962|
|         635|   -6.615940|   -4.109353|   -4.630648|   -5.982279|
|         636|   -6.620661|   -4.110382|   -4.634468|   -5.987645|
|         637|   -6.623776|   -4.111509|   -4.636601|   -5.993056|
|         638|   -6.625262|   -4.112727|   -4.637089|   -5.998513|
|         639|   -6.625242|   -4.114026|   -4.636083|   -6.004009|
|         640|   -6.623799|   -4.115396|   -4.633704|   -6.009546|
|         641|   -6.621107|   -4.116831|   -4.630185|   -6.015117|
|         642|   -6.617305|   -4.118318|   -4.625690|   -6.020721|
|         643|   -6.612623|   -4.119849|   -4.620442|   -6.026355|
|         644|   -6.607219|   -4.121413|   -4.614606|   -6.032014|
|         645|   -6.601292|   -4.123008|   -4.608364|   -6.037699|
|         646|   -6.595004|   -4.124627|   -4.601903|   -6.043400|
|         647|   -6.588470|   -4.126269|   -4.595327|   -6.049127|
|         648|   -6.581862|   -4.127937|   -4.588852|   -6.054869|
|         649|   -6.575241|   -4.129630|   -4.582519|   -6.060626|
|         650|   -6.568664|   -4.131353|   -4.576400|   -6.066393|
|         651|   -6.562186|   -4.133110|   -4.570543|   -6.072173|
|         652|   -6.555846|   -4.134905|   -4.565000|   -6.077960|
|         653|   -6.549643|   -4.136747|   -4.559738|   -6.083760|
|         654|   -6.543589|   -4.138640|   -4.554792|   -6.089570|
|         655|   -6.537674|   -4.140593|   -4.550122|   -6.095386|
|         656|   -6.531810|   -4.142613|   -4.545635|   -6.101219|
|         657|   -6.526095|   -4.144706|   -4.541462|   -6.107056|
|         658|   -6.520321|   -4.146876|   -4.537335|   -6.112918|
|         659|   -6.514638|   -4.149128|   -4.533485|   -6.118798|
|         660|   -6.508898|   -4.151464|   -4.529706|   -6.124696|
|         661|   -6.503018|   -4.153887|   -4.525912|   -6.130629|
|         662|   -6.497117|   -4.156402|   -4.522270|   -6.136593|
|         663|   -6.491038|   -4.159007|   -4.518571|   -6.142601|
|         664|   -6.484839|   -4.161709|   -4.514905|   -6.148653|
|         665|   -6.478475|   -4.164506|   -4.511139|   -6.154750|
|         666|   -6.471865|   -4.167404|   -4.507237|   -6.160903|
|         667|   -6.465126|   -4.170406|   -4.503352|   -6.167112|
|         668|   -6.458217|   -4.173511|   -4.499429|   -6.173376|
|         669|   -6.451120|   -4.176717|   -4.495451|   -6.179692|
|         670|   -6.443869|   -4.180027|   -4.491466|   -6.186052|
|         671|   -6.436419|   -4.183440|   -4.487419|   -6.192453|
|         672|   -6.428843|   -4.186957|   -4.483402|   -6.198885|
|         673|   -6.421160|   -4.190574|   -4.479421|   -6.205333|
|         674|   -6.413347|   -4.194289|   -4.475431|   -6.211781|
|         675|   -6.405461|   -4.198094|   -4.471489|   -6.218212|
|         676|   -6.397519|   -4.201984|   -4.467596|   -6.224602|
|         677|   -6.389526|   -4.205948|   -4.463745|   -6.230923|
|         678|   -6.381490|   -4.209977|   -4.459939|   -6.237149|
|         679|   -6.373455|   -4.214062|   -4.456228|   -6.243245|
|         680|   -6.365420|   -4.218193|   -4.452605|   -6.249177|
|         681|   -6.357404|   -4.222363|   -4.449088|   -6.254910|
|         682|   -6.349428|   -4.226569|   -4.445701|   -6.260406|
|         683|   -6.341502|   -4.230803|   -4.442459|   -6.265629|
|         684|   -6.333642|   -4.235066|   -4.439383|   -6.270537|
|         685|   -6.325860|   -4.239356|   -4.436493|   -6.275086|
|         686|   -6.318166|   -4.243667|   -4.433815|   -6.279233|
|         687|   -6.310571|   -4.247989|   -4.431364|   -6.282934|
|         688|   -6.303080|   -4.252300|   -4.429145|   -6.286148|
|         689|   -6.295702|   -4.256576|   -4.427178|   -6.288829|
|         690|   -6.288441|   -4.260799|   -4.425476|   -6.290935|
|         691|   -6.281299|   -4.264956|   -4.424061|   -6.292423|
|         692|   -6.274317|   -4.269020|   -4.422556|   -6.293267|
|         693|   -6.267410|   -4.272995|   -4.421084|   -6.293436|
|         694|   -6.260601|   -4.276882|   -4.419823|   -6.292894|
|         695|   -6.253927|   -4.280665|   -4.418830|   -6.291611|
|         696|   -6.247392|   -4.284329|   -4.418129|   -6.289563|
|         697|   -6.240982|   -4.287863|   -4.417732|   -6.286735|
|         698|   -6.234684|   -4.291249|   -4.417647|   -6.283132|
|         699|   -6.228503|   -4.294484|   -4.417682|   -6.278783|
|         700|   -6.222383|   -4.297590|   -4.418024|   -6.273717|
|         701|   -6.216347|   -4.300601|   -4.418746|   -6.267986|
|         702|   -6.210404|   -4.303544|   -4.419903|   -6.261668|
|         703|   -6.204586|   -4.306450|   -4.421205|   -6.254890|
|         704|   -6.198898|   -4.309360|   -4.422200|   -6.247842|
|         705|   -6.193260|   -4.312350|   -4.423487|   -6.240651|
|         706|   -6.187758|   -4.315502|   -4.425246|   -6.233463|
|         707|   -6.182408|   -4.318869|   -4.427558|   -6.226420|
|         708|   -6.177190|   -4.322491|   -4.430464|   -6.219674|
|         709|   -6.172070|   -4.326390|   -4.433999|   -6.213374|
|         710|   -6.167022|   -4.330566|   -4.438214|   -6.207659|
|         711|   -6.162372|   -4.334907|   -4.437960|   -6.203237|
|         712|   -6.157343|   -4.339547|   -4.435908|   -6.199923|
|         713|   -6.152312|   -4.344384|   -4.433745|   -6.197455|
|         714|   -6.147451|   -4.349333|   -4.431875|   -6.195514|
|         715|   -6.142811|   -4.354305|   -4.429186|   -6.193962|
|         716|   -6.138319|   -4.359208|   -4.423328|   -6.192797|
|         717|   -6.133637|   -4.364106|   -4.416932|   -6.191607|
|         718|   -6.129113|   -4.368904|   -4.410686|   -6.190193|
|         719|   -6.124766|   -4.373598|   -4.404683|   -6.188500|
|         720|   -6.120705|   -4.378232|   -4.399124|   -6.186534|
|         721|   -6.116932|   -4.382841|   -4.393997|   -6.184311|
|         722|   -6.113477|   -4.387462|   -4.389343|   -6.181868|
|         723|   -6.110295|   -4.392118|   -4.385069|   -6.179216|
|         724|   -6.107307|   -4.396802|   -4.381037|   -6.176404|
|         725|   -6.104444|   -4.401507|   -4.377195|   -6.173449|
|         726|   -6.101689|   -4.406243|   -4.373522|   -6.170351|
|         727|   -6.099039|   -4.411018|   -4.370011|   -6.167098|
|         728|   -6.096488|   -4.415829|   -4.366640|   -6.163677|
|         729|   -6.094040|   -4.420679|   -4.363395|   -6.160095|
|         730|   -6.091717|   -4.425555|   -4.360312|   -6.156372|
|         731|   -6.089555|   -4.430440|   -4.357485|   -6.152498|
|         732|   -6.087525|   -4.435305|   -4.354872|   -6.148514|
|         733|   -6.085603|   -4.440113|   -4.352393|   -6.144440|
|         734|   -6.083837|   -4.444817|   -4.350109|   -6.140337|
|         735|   -6.082199|   -4.449351|   -4.347964|   -6.136235|
|         736|   -6.080670|   -4.453670|   -4.345931|   -6.132082|
|         737|   -6.079246|   -4.457740|   -4.344007|   -6.127883|
|         738|   -6.077948|   -4.461523|   -4.342221|   -6.123620|
|         739|   -6.076756|   -4.464978|   -4.340536|   -6.119361|
|         740|   -6.075687|   -4.468065|   -4.338971|   -6.115219|
|         741|   -6.074757|   -4.470744|   -4.337556|   -6.111265|
|         742|   -6.073973|   -4.472991|   -4.336287|   -6.107453|
|         743|   -6.073370|   -4.474772|   -4.335210|   -6.103681|
|         744|   -6.072933|   -4.476046|   -4.334251|   -6.099934|
|         745|   -6.072655|   -4.476810|   -4.333385|   -6.096266|
|         746|   -6.072533|   -4.477102|   -4.332624|   -6.092700|
|         747|   -6.072556|   -4.476984|   -4.331961|   -6.089205|
|         748|   -6.072711|   -4.476504|   -4.331369|   -6.085760|
|         749|   -6.072986|   -4.475672|   -4.330823|   -6.082363|
|         750|   -6.073375|   -4.474475|   -4.330305|   -6.079060|
|         751|   -6.073871|   -4.472895|   -4.329821|   -6.075893|
|         752|   -6.074470|   -4.470951|   -4.329359|   -6.072833|
|         753|   -6.075166|   -4.468709|   -4.328915|   -6.069798|
|         754|   -6.075964|   -4.466262|   -4.328503|   -6.066680|
|         755|   -6.076867|   -4.463714|   -4.328137|   -6.063383|
|         756|   -6.077872|   -4.461145|   -4.327824|   -6.059856|
|         757|   -6.078973|   -4.458634|   -4.327576|   -6.056092|
|         758|   -6.080160|   -4.456199|   -4.327442|   -6.052124|
|         759|   -6.081417|   -4.453905|   -4.327434|   -6.048001|
|         760|   -6.082725|   -4.451732|   -4.327541|   -6.043756|
|         761|   -6.084068|   -4.449753|   -4.327764|   -6.039405|
|         762|   -6.085432|   -4.448041|   -4.328080|   -6.034963|
|         763|   -6.086807|   -4.446632|   -4.328477|   -6.030472|
|         764|   -6.088178|   -4.445524|   -4.328970|   -6.026018|
|         765|   -6.089529|   -4.444682|   -4.329584|   -6.021708|
|         766|   -6.090847|   -4.444048|   -4.330321|   -6.017641|
|         767|   -6.092124|   -4.443621|   -4.331171|   -6.013871|
|         768|   -6.093356|   -4.443375|   -4.332108|   -6.010412|
|         769|   -6.094541|   -4.443292|   -4.333115|   -6.007249|
|         770|   -6.095685|   -4.443351|   -4.334202|   -6.004357|
|         771|   -6.096789|   -4.443547|   -4.335382|   -6.001711|
|         772|   -6.097853|   -4.443863|   -4.336682|   -5.999292|
|         773|   -6.098881|   -4.444290|   -4.338130|   -5.997093|
|         774|   -6.099877|   -4.444806|   -4.339723|   -5.995103|
|         775|   -6.100843|   -4.445344|   -4.341457|   -5.993314|
|         776|   -6.101783|   -4.445849|   -4.343331|   -5.991723|
|         777|   -6.102694|   -4.446261|   -4.345333|   -5.990341|
|         778|   -6.103586|   -4.446514|   -4.347466|   -5.989172|
|         779|   -6.104477|   -4.446552|   -4.349723|   -5.988232|
|         780|   -6.105357|   -4.446360|   -4.352109|   -5.987527|
|         781|   -6.106259|   -4.445892|   -4.354615|   -5.987091|
|         782|   -6.107176|   -4.445117|   -4.357230|   -5.986924|
|         783|   -6.108151|   -4.443990|   -4.359947|   -5.987099|
|         784|   -6.109190|   -4.442476|   -4.362758|   -5.987550|
|         785|   -6.110322|   -4.440544|   -4.365641|   -5.988285|
|         786|   -6.111530|   -4.438167|   -4.368581|   -5.989339|
|         787|   -6.112860|   -4.435317|   -4.371567|   -5.990682|
|         788|   -6.114328|   -4.432001|   -4.374588|   -5.992369|
|         789|   -6.115898|   -4.428212|   -4.377633|   -5.994445|
|         790|   -6.117663|   -4.423957|   -4.380689|   -5.996787|
|         791|   -6.119586|   -4.419288|   -4.383768|   -5.999573|
|         792|   -6.121699|   -4.414226|   -4.386875|   -6.002679|
|         793|   -6.124027|   -4.408795|   -4.390019|   -6.006080|
|         794|   -6.126564|   -4.403053|   -4.393218|   -6.009820|
|         795|   -6.129308|   -4.397035|   -4.396480|   -6.013960|
|         796|   -6.132284|   -4.390779|   -4.399810|   -6.018485|
|         797|   -6.135490|   -4.384335|   -4.403215|   -6.023420|
|         798|   -6.138933|   -4.377757|   -4.406712|   -6.028776|
|         799|   -6.142610|   -4.371111|   -4.410315|   -6.034570|
|         800|   -6.146508|   -4.364449|   -4.414048|   -6.040788|
|         801|   -6.150617|   -4.357808|   -4.417910|   -6.047447|
|         802|   -6.154922|   -4.351220|   -4.421903|   -6.054496|
|         803|   -6.159410|   -4.344717|   -4.426029|   -6.061897|
|         804|   -6.164094|   -4.338339|   -4.430363|   -6.069595|
|         805|   -6.168927|   -4.332102|   -4.434762|   -6.077473|
|         806|   -6.173917|   -4.326033|   -4.439275|   -6.085485|
|         807|   -6.179049|   -4.320156|   -4.443874|   -6.093575|
|         808|   -6.184308|   -4.314495|   -4.448506|   -6.101653|
|         809|   -6.189682|   -4.309035|   -4.453100|   -6.109656|
|         810|   -6.195157|   -4.303790|   -4.457558|   -6.117521|
|         811|   -6.200702|   -4.298767|   -4.461776|   -6.125162|
|         812|   -6.206334|   -4.293980|   -4.465747|   -6.132504|
|         813|   -6.212004|   -4.289431|   -4.469240|   -6.139526|
|         814|   -6.217717|   -4.285123|   -4.472219|   -6.146163|
|         815|   -6.223431|   -4.281050|   -4.474576|   -6.152358|
|         816|   -6.229097|   -4.277201|   -4.476248|   -6.158092|
|         817|   -6.234684|   -4.273575|   -4.477193|   -6.163348|
|         818|   -6.240167|   -4.270185|   -4.477379|   -6.168110|
|         819|   -6.245518|   -4.267049|   -4.476806|   -6.172351|
|         820|   -6.250714|   -4.264121|   -4.475638|   -6.176048|
|         821|   -6.255735|   -4.261396|   -4.473883|   -6.179156|
|         822|   -6.260588|   -4.258883|   -4.471609|   -6.181641|
|         823|   -6.265274|   -4.256576|   -4.468985|   -6.183542|
|         824|   -6.269789|   -4.254450|   -4.466113|   -6.184772|
|         825|   -6.274139|   -4.252492|   -4.462994|   -6.185275|
|         826|   -6.278337|   -4.250694|   -4.459623|   -6.184992|
|         827|   -6.282344|   -4.249037|   -4.455933|   -6.183867|
|         828|   -6.286159|   -4.247504|   -4.451913|   -6.181879|
|         829|   -6.289766|   -4.246067|   -4.447528|   -6.178969|
|         830|   -6.293118|   -4.244742|   -4.442763|   -6.175139|
|         831|   -6.296219|   -4.243547|   -4.437665|   -6.170457|
|         832|   -6.299102|   -4.242484|   -4.432279|   -6.165014|
|         833|   -6.301754|   -4.241553|   -4.426659|   -6.158862|
|         834|   -6.304209|   -4.240749|   -4.420886|   -6.152077|
|         835|   -6.306449|   -4.240082|   -4.415021|   -6.144786|
|         836|   -6.308513|   -4.239562|   -4.409145|   -6.137089|
|         837|   -6.310405|   -4.239194|   -4.403340|   -6.129084|
|         838|   -6.312025|   -4.239017|   -4.397651|   -6.120891|
|         839|   -6.313415|   -4.239043|   -4.392082|   -6.112551|
|         840|   -6.314609|   -4.239206|   -4.386619|   -6.104103|
|         841|   -6.315605|   -4.239404|   -4.381257|   -6.095667|
|         842|   -6.316388|   -4.239543|   -4.375967|   -6.087313|
|         843|   -6.316945|   -4.239586|   -4.370749|   -6.079052|
|         844|   -6.317096|   -4.239520|   -4.365643|   -6.070894|
|         845|   -6.316870|   -4.239309|   -4.360718|   -6.062851|
|         846|   -6.316282|   -4.238949|   -4.356113|   -6.055052|
|         847|   -6.315270|   -4.238513|   -4.351957|   -6.047676|
|         848|   -6.313924|   -4.238113|   -4.348276|   -6.040837|
|         849|   -6.312870|   -4.237871|   -4.344809|   -6.034749|
|         850|   -6.312164|   -4.237867|   -4.341266|   -6.029803|
|         851|   -6.311307|   -4.238034|   -4.338197|   -6.026122|
|         852|   -6.311216|   -4.238151|   -4.336224|   -6.023369|
|         853|   -6.312844|   -4.238059|   -4.335307|   -6.021232|
|         854|   -6.315542|   -4.237825|   -4.335097|   -6.019705|
|         855|   -6.318561|   -4.237851|   -4.335186|   -6.018489|
|         856|   -6.321780|   -4.238388|   -4.335471|   -6.017022|
|         857|   -6.325142|   -4.239122|   -4.335950|   -6.015009|
|         858|   -6.328152|   -4.239668|   -4.336476|   -6.012400|
|         859|   -6.330355|   -4.239956|   -4.336801|   -6.009256|
|         860|   -6.331580|   -4.240072|   -4.336841|   -6.005841|
|         861|   -6.331743|   -4.240098|   -4.336717|   -6.002621|
|         862|   -6.331102|   -4.240015|   -4.336443|   -6.000029|
|         863|   -6.330217|   -4.239760|   -4.335835|   -5.998181|
|         864|   -6.329528|   -4.239215|   -4.334974|   -5.996705|
|         865|   -6.329231|   -4.238478|   -4.334047|   -5.995039|
|         866|   -6.329113|   -4.237839|   -4.333437|   -5.992948|
|         867|   -6.329087|   -4.237628|   -4.333447|   -5.990610|
|         868|   -6.328897|   -4.237992|   -4.333779|   -5.988455|
|         869|   -6.328796|   -4.238589|   -4.334095|   -5.986870|
|         870|   -6.329663|   -4.239123|   -4.334666|   -5.985967|
|         871|   -6.332875|   -4.239512|   -4.336086|   -5.985586|
|         872|   -6.339207|   -4.239801|   -4.338763|   -5.985561|
|         873|   -6.348444|   -4.240092|   -4.342719|   -5.985733|
|         874|   -6.360017|   -4.240486|   -4.347704|   -5.985908|
|         875|   -6.373264|   -4.241036|   -4.353268|   -5.985932|
|         876|   -6.387345|   -4.241785|   -4.358916|   -5.985721|
|         877|   -6.401444|   -4.242732|   -4.364149|   -5.985259|
|         878|   -6.415451|   -4.243815|   -4.368626|   -5.984596|
|         879|   -6.429311|   -4.244939|   -4.372921|   -5.983748|
|         880|   -6.441521|   -4.246010|   -4.376885|   -5.982763|
|         881|   -6.451566|   -4.246876|   -4.380545|   -5.981686|
|         882|   -6.460167|   -4.247407|   -4.383989|   -5.980553|
|         883|   -6.468352|   -4.247568|   -4.387188|   -5.979394|
|         884|   -6.476776|   -4.247497|   -4.389952|   -5.978218|
|         885|   -6.485090|   -4.247680|   -4.392000|   -5.977034|
|         886|   -6.492741|   -4.248302|   -4.392945|   -5.975857|
|         887|   -6.499634|   -4.249605|   -4.393099|   -5.974737|
|         888|   -6.505334|   -4.251138|   -4.392991|   -5.973720|
|         889|   -6.509974|   -4.252567|   -4.392911|   -5.972834|
|         890|   -6.513757|   -4.253818|   -4.392979|   -5.972073|
|         891|   -6.516673|   -4.254900|   -4.393174|   -5.971421|
|         892|   -6.518878|   -4.255835|   -4.393303|   -5.970849|
|         893|   -6.520297|   -4.256590|   -4.393050|   -5.970324|
|         894|   -6.520609|   -4.257111|   -4.392213|   -5.969810|
|         895|   -6.519294|   -4.257303|   -4.390530|   -5.969271|
|         896|   -6.515948|   -4.257056|   -4.387929|   -5.968690|
|         897|   -6.510194|   -4.256277|   -4.384371|   -5.968056|
|         898|   -6.502161|   -4.254923|   -4.379788|   -5.967372|
|         899|   -6.493000|   -4.253022|   -4.373978|   -5.966680|
|         900|   -6.482842|   -4.250746|   -4.367348|   -5.965960|
|         901|   -6.472578|   -4.248230|   -4.360174|   -5.965228|
|         902|   -6.462789|   -4.245726|   -4.352640|   -5.964488|
|         903|   -6.453781|   -4.243443|   -4.344926|   -5.963736|
|         904|   -6.445563|   -4.241541|   -4.337230|   -5.962968|
|         905|   -6.437699|   -4.240027|   -4.329734|   -5.962151|
|         906|   -6.429471|   -4.238776|   -4.322625|   -5.961211|
|         907|   -6.419765|   -4.237517|   -4.315995|   -5.960079|
|         908|   -6.408471|   -4.235952|   -4.309478|   -5.958884|
|         909|   -6.394890|   -4.234039|   -4.303332|   -5.957573|
|         910|   -6.378380|   -4.231717|   -4.298221|   -5.956065|
|         911|   -6.359487|   -4.229220|   -4.294384|   -5.954401|
|         912|   -6.339472|   -4.227190|   -4.291980|   -5.952624|
|         913|   -6.319515|   -4.226045|   -4.291123|   -5.950782|
|         914|   -6.300700|   -4.226095|   -4.291812|   -5.948950|
|         915|   -6.284028|   -4.227386|   -4.294082|   -5.947137|
|         916|   -6.270148|   -4.229669|   -4.297651|   -5.945326|
|         917|   -6.259750|   -4.232591|   -4.302065|   -5.943525|
|         918|   -6.254228|   -4.236208|   -4.306678|   -5.941753|
|         919|   -6.254508|   -4.241557|   -4.310564|   -5.940094|
|         920|   -6.261101|   -4.250141|   -4.313064|   -5.938849|
|         921|   -6.270600|   -4.261970|   -4.314062|   -5.938117|
|         922|   -6.277560|   -4.274512|   -4.316204|   -5.938045|
|         923|   -6.280559|   -4.286203|   -4.320906|   -5.938446|
|         924|   -6.280188|   -4.296192|   -4.327036|   -5.939016|
|         925|   -6.278003|   -4.304031|   -4.333468|   -5.939452|
|         926|   -6.274989|   -4.310139|   -4.339956|   -5.939613|
|         927|   -6.271901|   -4.315388|   -4.345863|   -5.939457|
|         928|   -6.268891|   -4.320322|   -4.350568|   -5.939022|
|         929|   -6.265832|   -4.325078|   -4.354106|   -5.938379|
|         930|   -6.262589|   -4.329991|   -4.356787|   -5.937601|
|         931|   -6.259160|   -4.335109|   -4.358841|   -5.936736|
|         932|   -6.255724|   -4.340426|   -4.360398|   -5.935825|
|         933|   -6.252411|   -4.345939|   -4.361522|   -5.934921|
|         934|   -6.249312|   -4.351608|   -4.362261|   -5.934066|
|         935|   -6.246505|   -4.357364|   -4.362666|   -5.933289|
|         936|   -6.244041|   -4.363097|   -4.362802|   -5.932605|
|         937|   -6.241943|   -4.368693|   -4.362733|   -5.932009|
|         938|   -6.240190|   -4.374052|   -4.362553|   -5.931502|
|         939|   -6.238707|   -4.379060|   -4.362274|   -5.931088|
|         940|   -6.237425|   -4.383637|   -4.361907|   -5.930769|
|         941|   -6.236269|   -4.387744|   -4.361447|   -5.930554|
|         942|   -6.235180|   -4.391344|   -4.360862|   -5.930452|
|         943|   -6.234131|   -4.394431|   -4.360119|   -5.930464|
|         944|   -6.233105|   -4.397022|   -4.359176|   -5.930577|
|         945|   -6.232146|   -4.399158|   -4.358103|   -5.930773|
|         946|   -6.231178|   -4.400894|   -4.356777|   -5.931022|
|         947|   -6.230253|   -4.402274|   -4.355317|   -5.931293|
|         948|   -6.229277|   -4.403392|   -4.353603|   -5.931556|
|         949|   -6.228263|   -4.404336|   -4.351711|   -5.931784|
|         950|   -6.227196|   -4.405143|   -4.349626|   -5.931954|
|         951|   -6.226082|   -4.405874|   -4.347344|   -5.932055|
|         952|   -6.224927|   -4.406576|   -4.344871|   -5.932080|
|         953|   -6.223747|   -4.407293|   -4.342196|   -5.932025|
|         954|   -6.222595|   -4.408054|   -4.339377|   -5.931891|
|         955|   -6.221474|   -4.408860|   -4.336378|   -5.931679|
|         956|   -6.220430|   -4.409720|   -4.333231|   -5.931397|
|         957|   -6.219486|   -4.410625|   -4.329959|   -5.931046|
|         958|   -6.218662|   -4.411558|   -4.326579|   -5.930631|
|         959|   -6.217978|   -4.412513|   -4.323120|   -5.930159|
|         960|   -6.217438|   -4.413481|   -4.319606|   -5.929641|
|         961|   -6.217034|   -4.414451|   -4.316058|   -5.929088|
|         962|   -6.216749|   -4.415405|   -4.312508|   -5.928513|
|         963|   -6.216554|   -4.416309|   -4.308984|   -5.927929|
|         964|   -6.216408|   -4.417142|   -4.305513|   -5.927349|
|         965|   -6.216265|   -4.417902|   -4.302126|   -5.926784|
|         966|   -6.216084|   -4.418559|   -4.298846|   -5.926246|
|         967|   -6.215828|   -4.419086|   -4.295690|   -5.925747|
|         968|   -6.215467|   -4.419474|   -4.292662|   -5.925294|
|         969|   -6.214988|   -4.419722|   -4.289762|   -5.924894|
|         970|   -6.214396|   -4.419844|   -4.286987|   -5.924556|
|         971|   -6.213707|   -4.419846|   -4.284324|   -5.924281|
|         972|   -6.212944|   -4.419755|   -4.281759|   -5.924070|
|         973|   -6.212124|   -4.419599|   -4.279283|   -5.923920|
|         974|   -6.211271|   -4.419387|   -4.276886|   -5.923839|
|         975|   -6.210401|   -4.419139|   -4.274564|   -5.923821|
|         976|   -6.209535|   -4.418848|   -4.272314|   -5.923870|
|         977|   -6.208697|   -4.418499|   -4.270118|   -5.923983|
[...]
|        7710|   -9.363724|   -6.944540|   -7.661008|   -6.969227|
|        7711|   -9.355299|   -6.945727|   -7.656075|   -6.969256|
|        7712|   -9.346696|   -6.946959|   -7.650926|   -6.969284|
|        7713|   -9.337959|   -6.948236|   -7.645596|   -6.969313|
|        7714|   -9.329142|   -6.949559|   -7.640132|   -6.969341|
|        7715|   -9.320252|   -6.950927|   -7.634519|   -6.969370|
|        7716|   -9.311337|   -6.952341|   -7.628796|   -6.969399|
|        7717|   -9.302410|   -6.953801|   -7.622986|   -6.969427|
|        7718|   -9.293488|   -6.955307|   -7.617068|   -6.969456|
|        7719|   -9.284615|   -6.956859|   -7.611123|   -6.969484|
|        7720|   -9.275782|   -6.958457|   -7.605102|   -6.969513|
|        7721|   -9.267010|   -6.960101|   -7.599036|   -6.969541|
|        7722|   -9.258321|   -6.961792|   -7.592954|   -6.969569|
|        7723|   -9.249712|   -6.963530|   -7.586849|   -6.969598|
|        7724|   -9.241196|   -6.965313|   -7.580704|   -6.969626|
|        7725|   -9.232803|   -6.967144|   -7.574646|   -6.969655|
|        7726|   -9.224498|   -6.969022|   -7.568550|   -6.969683|
|        7727|   -9.216300|   -6.970946|   -7.562424|   -6.969711|
|        7728|   -9.208249|   -6.972919|   -7.556429|   -6.969739|
|        7729|   -9.200303|   -6.974938|   -7.550418|   -6.969767|
|        7730|   -9.192475|   -6.977005|   -7.544429|   -6.969795|
|        7731|   -9.184773|   -6.979119|   -7.538469|   -6.969823|
|        7732|   -9.177213|   -6.981281|   -7.532614|   -6.969851|
|        7733|   -9.169771|   -6.983492|   -7.526780|   -6.969879|
|        7734|   -9.162454|   -6.985750|   -7.520989|   -6.969907|
|        7735|   -9.155272|   -6.988057|   -7.515271|   -6.969935|
|        7736|   -9.148215|   -6.990412|   -7.509615|   -6.969962|
|        7737|   -9.141288|   -6.992816|   -7.504018|   -6.969990|
|        7738|   -9.134482|   -6.995268|   -7.498482|   -6.970017|
|        7739|   -9.127803|   -6.997770|   -7.493004|   -6.970044|
|        7740|   -9.121258|   -7.000321|   -7.487642|   -6.970072|
|        7741|   -9.114826|   -7.002922|   -7.482317|   -6.970099|
|        7742|   -9.108516|   -7.005572|   -7.477058|   -6.970125|
|        7743|   -9.102331|   -7.008272|   -7.471871|   -6.970152|
|        7744|   -9.096266|   -7.011022|   -7.466777|   -6.970179|
|        7745|   -9.090311|   -7.013822|   -7.461715|   -6.970205|
|        7746|   -9.084483|   -7.016672|   -7.456784|   -6.970232|
|        7747|   -9.078759|   -7.019574|   -7.451895|   -6.970258|
|        7748|   -9.073148|   -7.022526|   -7.447073|   -6.970284|
|        7749|   -9.067652|   -7.025529|   -7.442331|   -6.970310|
|        7750|   -9.062266|   -7.028584|   -7.437674|   -6.970336|
|        7751|   -9.056986|   -7.031690|   -7.433066|   -6.970361|
|        7752|   -9.051815|   -7.034847|   -7.428565|   -6.970387|
|        7753|   -9.046741|   -7.038057|   -7.424117|   -6.970412|
|        7754|   -9.041772|   -7.041319|   -7.419745|   -6.970437|
|        7755|   -9.036905|   -7.044633|   -7.415440|   -6.970462|
|        7756|   -9.032139|   -7.047999|   -7.411219|   -6.970487|
|        7757|   -9.027471|   -7.051419|   -7.407059|   -6.970512|
|        7758|   -9.022900|   -7.054891|   -7.402981|   -6.970536|
|        7759|   -9.018421|   -7.058416|   -7.398931|   -6.970560|
|        7760|   -9.014046|   -7.061995|   -7.395022|   -6.970584|
|        7761|   -9.009750|   -7.065627|   -7.391188|   -6.970608|
|        7762|   -9.005534|   -7.069313|   -7.387342|   -6.970631|
|        7763|   -9.001425|   -7.073052|   -7.383603|   -6.970654|
|        7764|   -8.997408|   -7.076846|   -7.379990|   -6.970678|
|        7765|   -8.993462|   -7.080693|   -7.376376|   -6.970700|
|        7766|   -8.989607|   -7.084595|   -7.372845|   -6.970723|
|        7767|   -8.985837|   -7.088551|   -7.369392|   -6.970745|
|        7768|   -8.982146|   -7.092561|   -7.365989|   -6.970768|
|        7769|   -8.978539|   -7.096626|   -7.362662|   -6.970790|
|        7770|   -8.975011|   -7.100745|   -7.359399|   -6.970811|
|        7771|   -8.971563|   -7.104918|   -7.356199|   -6.970833|
|        7772|   -8.968192|   -7.109146|   -7.353068|   -6.970854|
|        7773|   -8.964899|   -7.113429|   -7.350000|   -6.970875|
|        7774|   -8.961680|   -7.117765|   -7.346990|   -6.970896|
|        7775|   -8.958537|   -7.122156|   -7.344045|   -6.970916|
|        7776|   -8.955467|   -7.126601|   -7.341168|   -6.970936|
|        7777|   -8.952469|   -7.131100|   -7.338343|   -6.970956|
|        7778|   -8.949545|   -7.135653|   -7.335588|   -6.970976|
|        7779|   -8.946690|   -7.140258|   -7.332889|   -6.970996|
|        7780|   -8.943905|   -7.144916|   -7.330211|   -6.971015|
|        7781|   -8.941200|   -7.149629|   -7.327714|   -6.971034|
|        7782|   -8.938537|   -7.154392|   -7.325155|   -6.971052|
|        7783|   -8.935955|   -7.159207|   -7.322684|   -6.971071|
|        7784|   -8.933445|   -7.164072|   -7.320263|   -6.971089|
|        7785|   -8.931006|   -7.168989|   -7.317967|   -6.971107|
|        7786|   -8.928617|   -7.173953|   -7.315640|   -6.971125|
|        7787|   -8.926301|   -7.178968|   -7.313427|   -6.971142|
|        7788|   -8.924041|   -7.184029|   -7.311234|   -6.971159|
|        7789|   -8.921850|   -7.189136|   -7.309108|   -6.971176|
|        7790|   -8.919721|   -7.194288|   -7.307041|   -6.971193|
|        7791|   -8.917654|   -7.199483|   -7.304962|   -6.971209|
|        7792|   -8.915665|   -7.204723|   -7.303106|   -6.971225|
|        7793|   -8.913702|   -7.210000|   -7.301157|   -6.971241|
|        7794|   -8.911814|   -7.215317|   -7.299300|   -6.971257|
|        7795|   -8.909987|   -7.220669|   -7.297476|   -6.971272|
|        7796|   -8.908230|   -7.226058|   -7.295783|   -6.971288|
|        7797|   -8.906516|   -7.231476|   -7.294059|   -6.971302|
|        7798|   -8.904867|   -7.236926|   -7.292445|   -6.971317|
|        7799|   -8.903266|   -7.242399|   -7.290839|   -6.971332|
|        7800|   -8.901728|   -7.247897|   -7.289295|   -6.971346|
|        7801|   -8.900247|   -7.253413|   -7.287809|   -6.971360|
|        7802|   -8.898819|   -7.258944|   -7.286312|   -6.971373|
|        7803|   -8.897465|   -7.264491|   -7.285026|   -6.971387|
|        7804|   -8.896132|   -7.270041|   -7.283632|   -6.971400|
|        7805|   -8.894872|   -7.275596|   -7.282358|   -6.971413|
|        7806|   -8.893663|   -7.281147|   -7.281114|   -6.971425|
|        7807|   -8.892513|   -7.286692|   -7.279932|   -6.971438|
|        7808|   -8.891415|   -7.292224|   -7.278803|   -6.971450|
|        7809|   -8.890365|   -7.297736|   -7.277687|   -6.971462|
|        7810|   -8.889375|   -7.303224|   -7.276695|   -6.971474|
|        7811|   -8.888423|   -7.308677|   -7.275671|   -6.971485|
|        7812|   -8.887533|   -7.314091|   -7.274728|   -6.971496|
|        7813|   -8.886695|   -7.319457|   -7.273844|   -6.971507|
|        7814|   -8.885908|   -7.324768|   -7.273002|   -6.971518|
|        7815|   -8.885170|   -7.330014|   -7.272200|   -6.971529|
|        7816|   -8.884486|   -7.335189|   -7.271468|   -6.971539|
|        7817|   -8.883845|   -7.340278|   -7.270746|   -6.971549|
|        7818|   -8.883263|   -7.345278|   -7.270109|   -6.971559|
|        7819|   -8.882724|   -7.350174|   -7.269491|   -6.971569|
|        7820|   -8.882241|   -7.354959|   -7.268948|   -6.971578|
|        7821|   -8.881800|   -7.359619|   -7.268414|   -6.971587|
|        7822|   -8.881420|   -7.364149|   -7.267989|   -6.971596|
|        7823|   -8.881077|   -7.368530|   -7.267543|   -6.971605|
|        7824|   -8.880792|   -7.372760|   -7.267206|   -6.971613|
|        7825|   -8.880546|   -7.376820|   -7.266869|   -6.971622|
|        7826|   -8.880357|   -7.380703|   -7.266595|   -6.971630|
|        7827|   -8.880215|   -7.384398|   -7.266370|   -6.971638|
|        7828|   -8.880123|   -7.387894|   -7.266192|   -6.971645|
|        7829|   -8.880077|   -7.391180|   -7.266069|   -6.971652|
|        7830|   -8.880074|   -7.394244|   -7.265964|   -6.971660|
|        7831|   -8.880127|   -7.397083|   -7.265934|   -6.971666|
|        7832|   -8.880221|   -7.399679|   -7.265883|   -6.971673|
|        7833|   -8.880384|   -7.402036|   -7.266019|   -6.971680|
|        7834|   -8.880569|   -7.404132|   -7.266088|   -6.971686|
|        7835|   -8.880810|   -7.405972|   -7.266237|   -6.971692|
|        7836|   -8.881098|   -7.407544|   -7.266422|   -6.971698|
|        7837|   -8.881441|   -7.408848|   -7.266674|   -6.971703|
|        7838|   -8.881824|   -7.409876|   -7.266935|   -6.971708|
|        7839|   -8.882265|   -7.410631|   -7.267302|   -6.971713|
|        7840|   -8.882741|   -7.411104|   -7.267615|   -6.971718|
|        7841|   -8.883283|   -7.411306|   -7.268117|   -6.971723|
|        7842|   -8.883845|   -7.411224|   -7.268557|   -6.971727|
|        7843|   -8.884469|   -7.410873|   -7.269070|   -6.971732|
|        7844|   -8.885141|   -7.410252|   -7.269637|   -6.971736|
|        7845|   -8.885866|   -7.409366|   -7.270248|   -6.971739|
|        7846|   -8.886637|   -7.408220|   -7.270933|   -6.971743|
|        7847|   -8.887446|   -7.406817|   -7.271621|   -6.971746|
|        7848|   -8.888310|   -7.405172|   -7.272376|   -6.971749|
|        7849|   -8.889217|   -7.403286|   -7.273144|   -6.971752|
|        7850|   -8.890186|   -7.401175|   -7.274034|   -6.971755|
|        7851|   -8.891189|   -7.398841|   -7.274906|   -6.971757|
|        7852|   -8.892246|   -7.396300|   -7.275864|   -6.971760|
|        7853|   -8.893346|   -7.393558|   -7.276842|   -6.971762|
|        7854|   -8.894501|   -7.390630|   -7.277885|   -6.971764|
|        7855|   -8.895699|   -7.387523|   -7.278944|   -6.971766|
|        7856|   -8.896959|   -7.384254|   -7.280126|   -6.971767|
|        7857|   -8.898253|   -7.380825|   -7.281288|   -6.971768|
|        7858|   -8.899600|   -7.377254|   -7.282522|   -6.971770|
|        7859|   -8.900994|   -7.373549|   -7.283791|   -6.971771|
|        7860|   -8.902445|   -7.369724|   -7.285134|   -6.971771|
|        7861|   -8.903941|   -7.365785|   -7.286479|   -6.971772|
|        7862|   -8.905497|   -7.361747|   -7.287970|   -6.971772|
|        7863|   -8.907079|   -7.357613|   -7.289413|   -6.971772|
|        7864|   -8.908724|   -7.353400|   -7.290932|   -6.971772|
|        7865|   -8.910420|   -7.349114|   -7.292486|   -6.971772|
|        7866|   -8.912180|   -7.344766|   -7.294172|   -6.971771|
|        7867|   -8.913972|   -7.340361|   -7.295828|   -6.971771|
|        7868|   -8.915820|   -7.335909|   -7.297552|   -6.971770|
|        7869|   -8.917718|   -7.331417|   -7.299314|   -6.971769|
|        7870|   -8.919678|   -7.326895|   -7.301169|   -6.971767|
|        7871|   -8.921682|   -7.322346|   -7.303039|   -6.971766|
|        7872|   -8.923741|   -7.317780|   -7.304984|   -6.971764|
|        7873|   -8.925847|   -7.313199|   -7.306952|   -6.971762|
|        7874|   -8.928015|   -7.308613|   -7.309002|   -6.971760|
|        7875|   -8.930231|   -7.304024|   -7.311028|   -6.971758|
|        7876|   -8.932522|   -7.299441|   -7.313268|   -6.971755|
|        7877|   -8.934831|   -7.294861|   -7.315425|   -6.971753|
|        7878|   -8.937211|   -7.290297|   -7.317669|   -6.971750|
|        7879|   -8.939644|   -7.285748|   -7.319946|   -6.971747|
|        7880|   -8.942150|   -7.281220|   -7.322354|   -6.971743|
|        7881|   -8.944697|   -7.276714|   -7.324749|   -6.971740|
|        7882|   -8.947303|   -7.272236|   -7.327228|   -6.971736|
|        7883|   -8.949959|   -7.267786|   -7.329730|   -6.971732|
|        7884|   -8.952682|   -7.263369|   -7.332315|   -6.971728|
|        7885|   -8.955448|   -7.258986|   -7.334840|   -6.971724|
|        7886|   -8.958320|   -7.254642|   -7.337673|   -6.971719|
|        7887|   -8.961192|   -7.250332|   -7.340352|   -6.971715|
|        7888|   -8.964151|   -7.246065|   -7.343176|   -6.971710|
|        7889|   -8.967166|   -7.241841|   -7.346020|   -6.971705|
|        7890|   -8.970248|   -7.237661|   -7.348962|   -6.971700|
|        7891|   -8.973383|   -7.233526|   -7.351927|   -6.971694|
|        7892|   -8.976588|   -7.229438|   -7.354974|   -6.971689|
|        7893|   -8.979846|   -7.225398|   -7.357999|   -6.971683|
|        7894|   -8.983193|   -7.221407|   -7.361245|   -6.971677|
|        7895|   -8.986567|   -7.217463|   -7.364417|   -6.971671|
|        7896|   -8.990022|   -7.213571|   -7.367683|   -6.971665|
|        7897|   -8.993533|   -7.209731|   -7.370931|   -6.971658|
|        7898|   -8.997155|   -7.205943|   -7.374459|   -6.971651|
|        7899|   -9.000799|   -7.202206|   -7.377885|   -6.971645|
|        7900|   -9.004518|   -7.198522|   -7.381399|   -6.971637|
|        7901|   -9.008304|   -7.194891|   -7.384952|   -6.971630|
|        7902|   -9.012180|   -7.191315|   -7.388643|   -6.971623|
|        7903|   -9.016112|   -7.187792|   -7.392350|   -6.971615|
|        7904|   -9.020115|   -7.184323|   -7.396122|   -6.971608|
|        7905|   -9.024189|   -7.180908|   -7.399904|   -6.971600|
|        7906|   -9.028359|   -7.177548|   -7.403902|   -6.971592|
|        7907|   -9.032566|   -7.174240|   -7.407826|   -6.971583|
|        7908|   -9.036870|   -7.170989|   -7.411876|   -6.971575|
|        7909|   -9.041249|   -7.167792|   -7.415984|   -6.971566|
|        7910|   -9.045706|   -7.164649|   -7.420171|   -6.971558|
|        7911|   -9.050233|   -7.161562|   -7.424331|   -6.971549|
|        7912|   -9.054874|   -7.158528|   -7.428765|   -6.971540|
|        7913|   -9.059554|   -7.155548|   -7.433123|   -6.971530|
|        7914|   -9.064313|   -7.152623|   -7.437466|   -6.971521|
|        7915|   -9.069205|   -7.149753|   -7.442124|   -6.971511|
|        7916|   -9.074121|   -7.146935|   -7.446603|   -6.971502|
|        7917|   -9.079181|   -7.144172|   -7.451390|   -6.971492|
|        7918|   -9.084288|   -7.141462|   -7.456107|   -6.971482|
|        7919|   -9.089490|   -7.138806|   -7.460913|   -6.971472|
|        7920|   -9.094787|   -7.136204|   -7.465770|   -6.971461|
|        7921|   -9.100190|   -7.133654|   -7.470800|   -6.971451|
|        7922|   -9.105657|   -7.131157|   -7.475801|   -6.971440|
|        7923|   -9.111234|   -7.128713|   -7.480920|   -6.971430|
|        7924|   -9.116905|   -7.126322|   -7.486098|   -6.971419|
|        7925|   -9.122674|   -7.123983|   -7.491370|   -6.971408|
|        7926|   -9.128526|   -7.121695|   -7.496638|   -6.971396|
|        7927|   -9.134521|   -7.119461|   -7.502151|   -6.971385|
|        7928|   -9.140583|   -7.117277|   -7.507623|   -6.971374|
|        7929|   -9.146751|   -7.115146|   -7.513179|   -6.971362|
|        7930|   -9.153032|   -7.113065|   -7.518816|   -6.971350|
|        7931|   -9.159426|   -7.111035|   -7.524573|   -6.971338|
|        7932|   -9.165901|   -7.109056|   -7.530281|   -6.971326|
|        7933|   -9.172540|   -7.107128|   -7.536284|   -6.971314|
|        7934|   -9.179244|   -7.105249|   -7.542210|   -6.971302|
|        7935|   -9.186067|   -7.103421|   -7.548227|   -6.971289|
|        7936|   -9.193012|   -7.101643|   -7.554316|   -6.971277|
|        7937|   -9.200086|   -7.099914|   -7.560551|   -6.971264|
|        7938|   -9.207253|   -7.098234|   -7.566771|   -6.971251|
|        7939|   -9.214564|   -7.096604|   -7.573147|   -6.971238|
|        7940|   -9.221981|   -7.095022|   -7.579544|   -6.971225|
|        7941|   -9.229518|   -7.093489|   -7.586017|   -6.971212|
|        7942|   -9.237185|   -7.092005|   -7.592558|   -6.971198|
|        7943|   -9.244978|   -7.090569|   -7.599197|   -6.971185|
|        7944|   -9.252886|   -7.089182|   -7.605833|   -6.971171|
|        7945|   -9.260944|   -7.087842|   -7.612651|   -6.971158|
|        7946|   -9.269091|   -7.086549|   -7.619418|   -6.971144|
|        7947|   -9.277393|   -7.085305|   -7.626313|   -6.971130|
|        7948|   -9.285812|   -7.084108|   -7.633237|   -6.971116|
|        7949|   -9.294357|   -7.082957|   -7.640220|   -6.971102|
|        7950|   -9.303030|   -7.081855|   -7.647247|   -6.971087|
|        7951|   -9.311825|   -7.080798|   -7.654329|   -6.971073|
|        7952|   -9.320739|   -7.079789|   -7.661432|   -6.971058|
|        7953|   -9.329767|   -7.078825|   -7.668567|   -6.971044|
|        7954|   -9.338916|   -7.077909|   -7.675735|   -6.971029|
|        7955|   -9.348162|   -7.077039|   -7.682865|   -6.971014|
|        7956|   -9.357545|   -7.076214|   -7.690126|   -6.970999|
|        7957|   -9.366985|   -7.075435|   -7.697275|   -6.970984|
|        7958|   -9.376537|   -7.074703|   -7.704463|   -6.970969|
|        7959|   -9.386166|   -7.074016|   -7.711617|   -6.970954|
|        7960|   -9.395862|   -7.073375|   -7.718744|   -6.970939|
|        7961|   -9.405618|   -7.072779|   -7.725823|   -6.970923|
|        7962|   -9.415409|   -7.072229|   -7.732845|   -6.970908|
|        7963|   -9.425228|   -7.071724|   -7.739794|   -6.970892|
|        7964|   -9.435043|   -7.071264|   -7.746627|   -6.970877|
|        7965|   -9.444850|   -7.070848|   -7.753403|   -6.970861|
|        7966|   -9.454590|   -7.070478|   -7.760007|   -6.970845|
|        7967|   -9.464275|   -7.070153|   -7.766496|   -6.970830|
|        7968|   -9.473849|   -7.069873|   -7.772812|   -6.970814|
|        7969|   -9.483278|   -7.069637|   -7.778949|   -6.970798|
|        7970|   -9.492529|   -7.069446|   -7.784880|   -6.970782|
|        7971|   -9.501543|   -7.069299|   -7.790574|   -6.970766|
|        7972|   -9.510303|   -7.069197|   -7.796044|   -6.970749|
|        7973|   -9.518730|   -7.069140|   -7.801218|   -6.970733|
|        7974|   -9.526778|   -7.069127|   -7.806100|   -6.970717|
|        7975|   -9.534407|   -7.069159|   -7.810675|   -6.970701|
|        7976|   -9.541549|   -7.069235|   -7.814907|   -6.970684|
|        7977|   -9.548146|   -7.069355|   -7.818791|   -6.970668|
|        7978|   -9.554133|   -7.069519|   -7.822283|   -6.970652|
|        7979|   -9.559486|   -7.069727|   -7.825394|   -6.970635|
|        7980|   -9.564129|   -7.069981|   -7.828088|   -6.970619|
|        7981|   -9.568021|   -7.070277|   -7.830358|   -6.970602|
|        7982|   -9.571137|   -7.070619|   -7.832203|   -6.970585|
|        7983|   -9.573434|   -7.071005|   -7.833603|   -6.970569|
|        7984|   -9.574883|   -7.071434|   -7.834551|   -6.970552|
|        7985|   -9.575494|   -7.071908|   -7.835059|   -6.970535|
|        7986|   -9.575236|   -7.072426|   -7.835106|   -6.970519|
|        7987|   -9.574150|   -7.072988|   -7.834721|   -6.970502|
|        7988|   -9.572236|   -7.073595|   -7.833891|   -6.970485|
|        7989|   -9.569515|   -7.074245|   -7.832625|   -6.970468|
|        7990|   -9.566048|   -7.074940|   -7.830955|   -6.970451|
|        7991|   -9.561859|   -7.075680|   -7.828874|   -6.970435|
|        7992|   -9.556992|   -7.076463|   -7.826397|   -6.970418|
|        7993|   -9.551523|   -7.077292|   -7.823566|   -6.970401|
|        7994|   -9.545491|   -7.078164|   -7.820378|   -6.970384|
|        7995|   -9.538945|   -7.079081|   -7.816849|   -6.970367|
|        7996|   -9.531965|   -7.080043|   -7.813029|   -6.970350|
|        7997|   -9.524574|   -7.081049|   -7.808893|   -6.970333|
|        7998|   -9.516870|   -7.082100|   -7.804534|   -6.970316|
|        7999|   -9.508866|   -7.083196|   -7.799910|   -6.970299|
|        8000|   -9.500612|   -7.084337|   -7.795047|   -6.970282|
+-----------------------------------------------------------------------+
|        File Writing Summary       |              Filename             |
+-----------------------------------------------------------------------+
|SU2 restart                        |restart_venturi_mixturedensity_30kW_fine_test.dat|
|                                   |                     (141.352 MB/s)|
|Paraview                           |flow_venturi_mixturedensity_30kW_fine_test_00008000.vtu|
