scsub> Executing:  'cd /home/hem1dev/Codes/SU2_Github_Mark_Test/SU2/Venturi'


WARNING: CONV_CRITERIA is deprecated. SU2 will choose the criteria automatically based on the CONV_FIELD.
That is, RESIDUAL for any RMS_* BGS_* value, and CAUCHY for coefficients such as DRAG etc.


-------------------------------------------------------------------------
|    ___ _   _ ___                                                      |
|   / __| | | |_  )   Release 7.1.1 "Blackbird"                         |
|   \__ \ |_| |/ /                                                      |
|   |___/\___//___|   Suite (Computational Fluid Dynamics Code)         |
|                                                                       |
-------------------------------------------------------------------------
| SU2 Project Website: https://su2code.github.io                        |
|                                                                       |
| The SU2 Project is maintained by the SU2 Foundation                   |
| (http://su2foundation.org)                                            |
-------------------------------------------------------------------------
| Copyright 2012-2021, SU2 Contributors                                 |
|                                                                       |
| SU2 is free software; you can redistribute it and/or                  |
| modify it under the terms of the GNU Lesser General Public            |
| License as published by the Free Software Foundation; either          |
| version 2.1 of the License, or (at your option) any later version.    |
|                                                                       |
| SU2 is distributed in the hope that it will be useful,                |
| but WITHOUT ANY WARRANTY; without even the implied warranty of        |
| MERCHANTABILITY or FITNESS FOR A PARTICULAR PURPOSE. See the GNU      |
| Lesser General Public License for more details.                       |
|                                                                       |
| You should have received a copy of the GNU Lesser General Public      |
| License along with SU2. If not, see <http://www.gnu.org/licenses/>.   |
-------------------------------------------------------------------------


WARNING: CONV_CRITERIA is deprecated. SU2 will choose the criteria automatically based on the CONV_FIELD.
That is, RESIDUAL for any RMS_* BGS_* value, and CAUCHY for coefficients such as DRAG etc.


Parsing config file for zone 0


WARNING: CONV_CRITERIA is deprecated. SU2 will choose the criteria automatically based on the CONV_FIELD.
That is, RESIDUAL for any RMS_* BGS_* value, and CAUCHY for coefficients such as DRAG etc.


----------------- Physical Case Definition ( Zone 0 ) -------------------
Incompressible Laminar Navier-Stokes' equations.
No restart solution, use the values at infinity (freestream).
Dimensional simulation.
The reference area is 1 m^2.
The semi-span will be computed using the max y(3D) value.
The reference length is 1 m.
Input mesh file name: c6_cms_venturi.cgns

--------------- Space Numerical Integration ( Zone 0 ) ------------------
Flux difference splitting (FDS) upwind scheme for the flow inviscid terms.
Second order integration in space, with slope limiter.
No slope-limiting method. 
Average of gradients with correction (viscous flow terms).
Gradient for upwind reconstruction: inverse-distance weighted Least-Squares.
Gradient for viscous and source terms: inverse-distance weighted Least-Squares.

--------------- Time Numerical Integration  ( Zone 0 ) ------------------
Local time stepping (steady state simulation).
Euler implicit method for the flow equations.
FGMRES is used for solving the linear system.
Using a ILU(0) preconditioning.
Convergence criteria of the linear solver: 1e-08.
Max number of linear iterations: 20.
No CFL adaptation.
Courant-Friedrichs-Lewy number:      100

------------------ Convergence Criteria  ( Zone 0 ) ---------------------
Maximum number of solver subiterations: 50000.
Begin convergence monitoring at iteration 10.
Residual minimum value: 1e-10.
Cauchy series min. value: 1e-06.
Number of Cauchy elements: 100.
Begin windowed time average at iteration 0.

-------------------- Output Information ( Zone 0 ) ----------------------
Writing solution files every 5000 iterations.
Writing the convergence history file every 1 inner iterations.
Writing the screen convergence history every 1 inner iterations.
The tabular file format is CSV (.csv).
Convergence history file name: history_test.
Forces breakdown file name: forces_breakdown.dat.
Surface file name: surface_flow_venturi_mixturedensity_30kW_fine_test.
Volume file name: flow_venturi_mixturedensity_30kW_fine_test.
Restart file name: restart_venturi_mixturedensity_30kW_fine_test.dat.

------------- Config File Boundary Information ( Zone 0 ) ---------------
+-----------------------------------------------------------------------+
|                        Marker Type|                        Marker Name|
+-----------------------------------------------------------------------+
|                     Symmetry plane|                               axis|
+-----------------------------------------------------------------------+
|                     Inlet boundary|                          gas_inlet|
|                                   |                          air_inlet|
+-----------------------------------------------------------------------+
|                    Outlet boundary|                             outlet|
+-----------------------------------------------------------------------+
|                     Heat flux wall|            wall-component1-surface|
+-----------------------------------------------------------------------+

-------------------- Output Preprocessing ( Zone 0 ) --------------------
  Info: Ignoring the following screen output fields:
  RMS_PASSIVE_SCALAR
Screen output fields: INNER_ITER, RMS_PRESSURE, RMS_VELOCITY-X, RMS_VELOCITY-Y
History output group(s): RMS_RES, AERO_COEFF, FLOW_COEFF
Ignoring Convergence Field(s): RMS_TKE 
Convergence field(s): RMS_PRESSURE, RMS_VELOCITY-X, RMS_VELOCITY-Y
Warning: No (valid) fields chosen for time convergence monitoring. Time convergence monitoring inactive.
  Info: Ignoring the following volume output fields/groups:
  SOURCE, LOOKUP
Volume output fields: DENSITY, SOLUTION, PRIMITIVE, RESIDUAL, COORDINATES

------------------- Geometry Preprocessing ( Zone 0 ) -------------------
Reading the CGNS file: c6_cms_venturi.cgns.
CGNS file contains 1 database(s).
Database 1, Base:  cell dimension of 2, physical dimension of 2.
1 total zone(s).
Zone 1, Zone: 292948 total vertices, 295883 total elements.
Loading CoordinateX values into linear partitions.
Loading CoordinateY values into linear partitions.
Distributing connectivity across all ranks.
Number of connectivity sections is 6.
Section gas_inlet contains 51 elements of type Mixed.
Section air_inlet contains 150 elements of type Mixed.
Section outlet contains 157 elements of type Mixed.
Section axis contains 1721 elements of type Mixed.
Section component1-surface contains 290183 elements of type Mixed.
Section wall-component1-surface contains 3621 elements of type Mixed.
Loading surface section gas_inlet from file.
Loading surface section air_inlet from file.
Loading surface section outlet from file.
Loading surface section axis from file.
Loading volume section component1-surface from file.
Loading surface section wall-component1-surface from file.
Two dimensional problem.
292948 grid points before partitioning.
290183 volume elements before partitioning.
5 surface markers.
51 boundary elements in index 0 (Marker = gas_inlet).
150 boundary elements in index 1 (Marker = air_inlet).
157 boundary elements in index 2 (Marker = outlet).
1721 boundary elements in index 3 (Marker = axis).
3621 boundary elements in index 4 (Marker = wall-component1-surface).
Executing the partitioning functions.
Building the graph adjacency structure.
Calling ParMETIS... graph partitioning complete (13662 edge cuts).
Distributing ParMETIS coloring.
Rebalancing vertices.
Rebalancing volume element connectivity.
Rebalancing markers and surface elements.
320617 vertices including ghost points. 
303881 interior elements including halo cells. 
174 triangles.
303707 quadrilaterals.
Establishing MPI communication patterns.
Setting point connectivity.
Renumbering points (Reverse Cuthill McKee Ordering).
Recomputing point connectivity.
Setting element connectivity.
Checking the numerical grid orientation.
All volume elements are correctly orientend.
All surface elements are correctly orientend.
Identifying edges and vertices.
Setting the control volume structure.
Area of the computational grid: 0.00286004.
Searching for the closest normal neighbors to the surfaces.
Storing a mapping from global to local point index.
Compute the surface curvature.
Max K: 25766.3. Mean K: 66.0693. Standard deviation K: 1007.76.
Checking for periodicity.
Computing mesh quality statistics for the dual control volumes.
+--------------------------------------------------------------+
|           Mesh Quality Metric|        Minimum|        Maximum|
+--------------------------------------------------------------+
|    Orthogonality Angle (deg.)|        45.2115|             90|
|     CV Face Area Aspect Ratio|              1|        10.3208|
|           CV Sub-Volume Ratio|              1|        9.85984|
+--------------------------------------------------------------+
Finding max control volume width.
Communicating number of neighbors.
Wetted area = 0 m^2.
Area projection in the x-plane = 0 m, y-plane = 0 m.
Max. coordinate in the x-direction = -1e+10 m, y-direction = -1e+10 m.
Min. coordinate in the x-direction = 1e+10 m, y-direction = 1e+10 m.
Checking if Euler & Symmetry markers are straight/plane:
Boundary marker axis is a single straight.
Computing wall distances.

-------------------- Solver Preprocessing ( Zone 0 ) --------------------
Incompressible flow: rho_ref, vel_ref, temp_ref, p_ref
are set to 1.0 in order to perform a dimensional calculation.
Force coefficients computed using initial values.
The reference area for force coeffs. is 1 m^2.
The reference length for force coeffs. is 1 m.
The pressure is decomposed into thermodynamic and dynamic components.
The initial value of the dynamic pressure is 0.
Mach number: 0, computed using fluid speed of sound.
For external flows, the initial state is imposed at the far-field.
Angle of attack (deg): 0, computed using the initial velocity.
Side slip angle (deg): 0, computed using the initial velocity.
Reynolds number per meter: 65008.4, computed using initial values.
Reynolds number is a byproduct of inputs only (not used internally).
SI units only. The grid should be dimensional (meters).
Energy equation is active and coupled for variable density.

-- Models:
+------------------------------------------------------------------------------+
|          Viscosity Model|        Conductivity Model|              Fluid Model|
+------------------------------------------------------------------------------+
|               SUTHERLAND|          CONSTANT_PRANDTL|            INC_IDEAL_GAS|
+------------------------------------------------------------------------------+
-- Fluid properties:
+------------------------------------------------------------------------------+
|                  Name|    Dim. value|    Ref. value|      Unit|Non-dim. value|
+------------------------------------------------------------------------------+
|        Ref. Viscosity|     1.716e-05|             1|   N.s/m^2|     1.716e-05|
|      Sutherland Temp.|        273.15|             1|         K|        273.15|
|     Sutherland Const.|         110.4|             1|         K|         110.4|
+------------------------------------------------------------------------------+
|        Prandtl (Lam.)|             -|             -|         -|          0.72|
|       Prandtl (Turb.)|             -|             -|         -|           0.9|
+------------------------------------------------------------------------------+
|       Spec. Heat (Cp)|        1004.7|             1|  N.m/kg.K|        1004.7|
|      Molecular weight|        16.043|             1|     g/mol|        16.043|
|          Gas Constant|       296.945|             1|  N.m/kg.K|       296.945|
|       Therm. Pressure|        106900|             1|        Pa|        106900|
+------------------------------------------------------------------------------+
-- Initial and free-stream conditions:
+------------------------------------------------------------------------------+
|                  Name|    Dim. value|    Ref. value|      Unit|Non-dim. value|
+------------------------------------------------------------------------------+
|      Dynamic Pressure|             0|             1|        Pa|             0|
|        Total Pressure|           0.6|             1|        Pa|           0.6|
|               Density|           1.2|             1|    kg/m^3|           1.2|
|           Temperature|           300|             1|         K|           300|
|            Velocity-X|             1|             1|       m/s|             1|
|            Velocity-Y|             0|             1|       m/s|             0|
|    Velocity Magnitude|             1|             1|       m/s|             1|
+------------------------------------------------------------------------------+
|             Viscosity|   1.84592e-05|             1|   N.s/m^2|   1.84592e-05|
|          Conductivity|             -|             1|   W/m^2.K|             -|
+------------------------------------------------------------------------------+
|           Mach Number|             -|             -|         -|             0|
|       Reynolds Number|             -|             -|         -|       65008.4|
+------------------------------------------------------------------------------+
Initialize Jacobian structure (Navier-Stokes). MG level: 0.

------------------- Numerics Preprocessing ( Zone 0 ) -------------------

----------------- Integration Preprocessing ( Zone 0 ) ------------------

------------------- Iteration Preprocessing ( Zone 0 ) ------------------
Euler/Navier-Stokes/RANS fluid iteration.

------------------------------ Begin Solver -----------------------------

Simulation Run using the Single-zone Driver
+---------------------------------------------------+
|  Inner_Iter|      rms[P]|      rms[U]|      rms[V]|
+---------------------------------------------------+
|           0|   -4.752486|   -4.482865|   -4.000289|
|           1|   -5.245187|   -4.427666|   -4.211972|
|           2|   -5.329377|   -4.602133|   -4.175405|
|           3|   -5.614730|   -4.888143|   -4.515528|
|           4|   -5.668743|   -4.909290|   -4.591246|
|           5|   -5.632900|   -4.880159|   -4.666921|
|           6|   -5.663540|   -4.843575|   -4.719187|
|           7|   -5.664835|   -4.810376|   -4.650907|
|           8|   -5.631764|   -4.781616|   -4.512684|
|           9|   -5.600124|   -4.753739|   -4.393107|
|          10|   -5.580662|   -4.725796|   -4.307601|
|          11|   -5.576798|   -4.697647|   -4.270499|
|          12|   -5.588466|   -4.669887|   -4.266776|
|          13|   -5.607508|   -4.642668|   -4.276135|
|          14|   -5.624803|   -4.615375|   -4.287170|
|          15|   -5.637219|   -4.587723|   -4.293356|
|          16|   -5.645347|   -4.559972|   -4.290946|
|          17|   -5.649928|   -4.532371|   -4.280048|
|          18|   -5.652686|   -4.505218|   -4.264635|
|          19|   -5.654715|   -4.478526|   -4.248045|
|          20|   -5.657551|   -4.452554|   -4.233084|
|          21|   -5.661001|   -4.427398|   -4.220137|
|          22|   -5.664933|   -4.403241|   -4.209082|
|          23|   -5.668802|   -4.380109|   -4.198968|
|          24|   -5.672621|   -4.358055|   -4.189375|
|          25|   -5.675977|   -4.336993|   -4.179600|
|          26|   -5.679171|   -4.316926|   -4.169882|
|          27|   -5.682109|   -4.297784|   -4.160198|
|          28|   -5.685009|   -4.279519|   -4.150924|
|          29|   -5.688057|   -4.262063|   -4.142339|
|          30|   -5.691246|   -4.245295|   -4.134451|
|          31|   -5.694520|   -4.229090|   -4.127134|
|          32|   -5.697899|   -4.213360|   -4.120273|
|          33|   -5.701278|   -4.198031|   -4.113619|
|          34|   -5.704639|   -4.183087|   -4.107055|
|          35|   -5.708011|   -4.168552|   -4.100548|
|          36|   -5.711385|   -4.154438|   -4.093376|
|          37|   -5.714798|   -4.140757|   -4.085248|
|          38|   -5.718181|   -4.127547|   -4.077386|
|          39|   -5.721562|   -4.114824|   -4.069789|
|          40|   -5.725018|   -4.102584|   -4.062587|
|          41|   -5.728559|   -4.090811|   -4.055842|
|          42|   -5.732185|   -4.079479|   -4.049579|
|          43|   -5.735870|   -4.068556|   -4.043743|
|          44|   -5.739667|   -4.057990|   -4.037234|
|          45|   -5.743526|   -4.047783|   -4.031447|
|          46|   -5.747324|   -4.037913|   -4.026069|
|          47|   -5.751193|   -4.028375|   -4.021203|
|          48|   -5.755030|   -4.019148|   -4.016707|
|          49|   -5.758883|   -4.010218|   -4.012618|
|          50|   -5.762719|   -4.001565|   -4.008863|
|          51|   -5.766538|   -3.993169|   -4.005419|
|          52|   -5.770339|   -3.985014|   -4.002255|
|          53|   -5.774126|   -3.977082|   -3.999358|
|          54|   -5.777896|   -3.969360|   -3.996705|
|          55|   -5.781644|   -3.961837|   -3.994285|
|          56|   -5.785369|   -3.954512|   -3.992098|
|          57|   -5.789068|   -3.947375|   -3.990126|
|          58|   -5.792732|   -3.940432|   -3.988368|
|          59|   -5.796359|   -3.933689|   -3.986828|
|          60|   -5.799952|   -3.927155|   -3.985504|
|          61|   -5.803510|   -3.920841|   -3.984393|
|          62|   -5.807033|   -3.914756|   -3.983487|
|          63|   -5.810522|   -3.908905|   -3.982772|
|          64|   -5.813980|   -3.903294|   -3.982237|
|          65|   -5.817413|   -3.897920|   -3.981873|
|          66|   -5.820830|   -3.892777|   -3.981670|
|          67|   -5.824237|   -3.887850|   -3.981618|
|          68|   -5.827643|   -3.883117|   -3.981713|
|          69|   -5.831056|   -3.878550|   -3.981950|
|          70|   -5.834482|   -3.874112|   -3.982330|
|          71|   -5.837930|   -3.869763|   -3.982859|
|          72|   -5.841409|   -3.865463|   -3.983546|
|          73|   -5.844927|   -3.861171|   -3.984405|
|          74|   -5.848497|   -3.856849|   -3.985455|
|          75|   -5.852127|   -3.852471|   -3.986712|
|          76|   -5.855838|   -3.848018|   -3.988202|
|          77|   -5.859643|   -3.843481|   -3.989712|
|          78|   -5.863594|   -3.838860|   -3.991279|
|          79|   -5.867615|   -3.834183|   -3.993105|
|          80|   -5.871817|   -3.829465|   -3.995304|
|          81|   -5.876122|   -3.824732|   -3.997741|
|          82|   -5.880662|   -3.820009|   -4.000582|
|          83|   -5.885383|   -3.815305|   -4.003694|
|          84|   -5.890348|   -3.810633|   -4.007108|
|          85|   -5.895563|   -3.805998|   -4.010541|
|          86|   -5.901052|   -3.801407|   -4.014093|
|          87|   -5.906780|   -3.796862|   -4.017767|
|          88|   -5.912752|   -3.792366|   -4.021535|
|          89|   -5.919005|   -3.787931|   -4.025403|
|          90|   -5.925521|   -3.783556|   -4.029317|
|          91|   -5.932313|   -3.779229|   -4.033243|
|          92|   -5.939383|   -3.774934|   -4.037090|
|          93|   -5.946781|   -3.770653|   -4.040512|
|          94|   -5.954661|   -3.766349|   -4.042648|
|          95|   -5.962828|   -3.762035|   -4.044624|
|          96|   -5.971208|   -3.757691|   -4.046124|
|          97|   -5.980184|   -3.753275|   -4.045992|
|          98|   -5.989572|   -3.748782|   -4.044993|
|          99|   -5.999173|   -3.744188|   -4.043560|
|         100|   -6.009301|   -3.739403|   -4.040382|
|         101|   -6.019745|   -3.734416|   -4.036625|
|         102|   -6.030319|   -3.729181|   -4.032061|
|         103|   -6.041313|   -3.723659|   -4.027221|
|         104|   -6.052159|   -3.717847|   -4.022125|
|         105|   -6.063310|   -3.711813|   -4.017750|
|         106|   -6.075189|   -3.705662|   -4.013679|
|         107|   -6.087542|   -3.699601|   -4.008622|
|         108|   -6.100217|   -3.693830|   -4.000367|
|         109|   -6.112429|   -3.688260|   -3.988654|
|         110|   -6.124441|   -3.682537|   -3.978106|
|         111|   -6.136241|   -3.676774|   -3.970170|
|         112|   -6.148758|   -3.670793|   -3.964065|
|         113|   -6.161757|   -3.664573|   -3.958431|
|         114|   -6.174520|   -3.658479|   -3.951495|
|         115|   -6.186147|   -3.652878|   -3.942941|
|         116|   -6.196151|   -3.647737|   -3.933430|
|         117|   -6.205175|   -3.642652|   -3.923712|
|         118|   -6.213807|   -3.637366|   -3.914038|
|         119|   -6.221489|   -3.631885|   -3.904205|
|         120|   -6.227688|   -3.626390|   -3.893950|
|         121|   -6.231977|   -3.621284|   -3.883433|
|         122|   -6.234310|   -3.616824|   -3.873074|
|         123|   -6.236234|   -3.613413|   -3.863462|
|         124|   -6.238157|   -3.611328|   -3.855131|
|         125|   -6.239664|   -3.610233|   -3.848021|
|         126|   -6.240218|   -3.609347|   -3.841435|
|         127|   -6.240103|   -3.607997|   -3.834800|
|         128|   -6.239840|   -3.606020|   -3.828059|
|         129|   -6.238954|   -3.603548|   -3.821385|
|         130|   -6.236383|   -3.600783|   -3.814691|
|         131|   -6.231840|   -3.597892|   -3.807826|
|         132|   -6.226321|   -3.594965|   -3.800826|
|         133|   -6.220814|   -3.592130|   -3.793798|
|         134|   -6.214694|   -3.589532|   -3.787092|
|         135|   -6.207290|   -3.587317|   -3.780733|
|         136|   -6.198734|   -3.585554|   -3.774844|
|         137|   -6.189794|   -3.584225|   -3.769351|
|         138|   -6.181367|   -3.583269|   -3.764362|
|         139|   -6.172571|   -3.582596|   -3.759991|
|         140|   -6.163180|   -3.582176|   -3.756237|
|         141|   -6.153308|   -3.582005|   -3.753062|
|         142|   -6.143321|   -3.582094|   -3.750398|
|         143|   -6.133720|   -3.582474|   -3.748157|
|         144|   -6.124559|   -3.583153|   -3.746434|
|         145|   -6.115439|   -3.584163|   -3.745226|
|         146|   -6.106326|   -3.585535|   -3.744519|
|         147|   -6.097246|   -3.587268|   -3.744262|
|         148|   -6.088279|   -3.589334|   -3.744417|
|         149|   -6.079438|   -3.591682|   -3.744914|
|         150|   -6.070759|   -3.594243|   -3.745650|
|         151|   -6.062282|   -3.596933|   -3.746518|
|         152|   -6.054012|   -3.599677|   -3.747220|
|         153|   -6.046015|   -3.602343|   -3.747646|
|         154|   -6.038213|   -3.604793|   -3.747618|
|         155|   -6.030585|   -3.606909|   -3.746953|
|         156|   -6.023107|   -3.608596|   -3.745388|
|         157|   -6.015807|   -3.609757|   -3.742834|
|         158|   -6.008635|   -3.610326|   -3.739148|
|         159|   -6.001612|   -3.610275|   -3.734287|
|         160|   -5.994726|   -3.609615|   -3.728323|
|         161|   -5.987996|   -3.608412|   -3.721388|
|         162|   -5.981454|   -3.606785|   -3.713677|
|         163|   -5.975169|   -3.604902|   -3.705556|
|         164|   -5.969186|   -3.602967|   -3.697417|
|         165|   -5.963543|   -3.601213|   -3.689657|
|         166|   -5.958275|   -3.599871|   -3.682647|
|         167|   -5.953432|   -3.599143|   -3.676738|
|         168|   -5.949070|   -3.599170|   -3.672225|
|         169|   -5.945250|   -3.599990|   -3.669306|
|         170|   -5.941970|   -3.601487|   -3.668103|
|         171|   -5.939219|   -3.603404|   -3.668552|
|         172|   -5.936952|   -3.605347|   -3.670410|
|         173|   -5.935101|   -3.606724|   -3.673235|
|         174|   -5.933569|   -3.606722|   -3.676260|
|         175|   -5.932183|   -3.604410|   -3.677993|
|         176|   -5.930795|   -3.598740|   -3.676467|
|         177|   -5.929160|   -3.588711|   -3.670246|
|         178|   -5.926862|   -3.573783|   -3.657635|
|         179|   -5.923662|   -3.554101|   -3.637847|
|         180|   -5.919380|   -3.530500|   -3.611464|
|         181|   -5.914119|   -3.504452|   -3.580403|
|         182|   -5.908077|   -3.477840|   -3.546972|
|         183|   -5.901533|   -3.452665|   -3.513135|
|         184|   -5.895310|   -3.430461|   -3.481649|
|         185|   -5.888996|   -3.412145|   -3.453819|
|         186|   -5.882758|   -3.398085|   -3.430266|
|         187|   -5.877169|   -3.387987|   -3.411645|
|         188|   -5.871609|   -3.381330|   -3.397587|
|         189|   -5.867052|   -3.377413|   -3.387808|
|         190|   -5.863315|   -3.375538|   -3.382038|
|         191|   -5.860148|   -3.375256|   -3.379571|
|         192|   -5.858467|   -3.376026|   -3.380129|
|         193|   -5.857437|   -3.377460|   -3.383342|
|         194|   -5.857014|   -3.379337|   -3.388805|
|         195|   -5.857263|   -3.381403|   -3.396065|
|         196|   -5.858153|   -3.383300|   -3.404551|
|         197|   -5.859459|   -3.384511|   -3.413498|
|         198|   -5.861034|   -3.384469|   -3.421517|
|         199|   -5.864403|   -3.382548|   -3.427433|
|         200|   -5.869075|   -3.378603|   -3.430442|
|         201|   -5.873278|   -3.373066|   -3.429939|
|         202|   -5.876272|   -3.366510|   -3.425874|
|         203|   -5.877798|   -3.359358|   -3.418758|
|         204|   -5.878050|   -3.352085|   -3.409528|
|         205|   -5.877654|   -3.345329|   -3.399398|
|         206|   -5.877233|   -3.339780|   -3.389646|
|         207|   -5.877170|   -3.335948|   -3.381334|
|         208|   -5.877606|   -3.333971|   -3.375081|
|         209|   -5.878577|   -3.333601|   -3.371236|
|         210|   -5.880069|   -3.334376|   -3.369761|
|         211|   -5.882368|   -3.335748|   -3.370223|
|         212|   -5.885610|   -3.337188|   -3.371917|
|         213|   -5.889464|   -3.338230|   -3.374048|
|         214|   -5.893498|   -3.338187|   -3.375798|
|         215|   -5.897289|   -3.336599|   -3.376325|
|         216|   -5.900189|   -3.333496|   -3.374849|
|         217|   -5.902213|   -3.329150|   -3.371116|
|         218|   -5.903248|   -3.323861|   -3.365210|
|         219|   -5.903579|   -3.317971|   -3.357443|
|         220|   -5.903326|   -3.311783|   -3.348355|
|         221|   -5.902701|   -3.305779|   -3.338850|
|         222|   -5.902089|   -3.300554|   -3.329831|
|         223|   -5.902172|   -3.296568|   -3.322048|
|         224|   -5.903368|   -3.294168|   -3.316016|
|         225|   -5.905613|   -3.293508|   -3.311739|
|         226|   -5.908567|   -3.294296|   -3.309315|
|         227|   -5.912102|   -3.296142|   -3.308598|
|         228|   -5.916233|   -3.298883|   -3.309474|
|         229|   -5.920737|   -3.302590|   -3.311719|
|         230|   -5.925434|   -3.307301|   -3.315229|
|         231|   -5.930462|   -3.312772|   -3.319730|
|         232|   -5.935878|   -3.318533|   -3.324816|
|         233|   -5.941316|   -3.324194|   -3.330253|
|         234|   -5.946764|   -3.329725|   -3.336119|
|         235|   -5.952236|   -3.335309|   -3.342333|
|         236|   -5.957735|   -3.340814|   -3.348637|
|         237|   -5.963206|   -3.345859|   -3.354737|
|         238|   -5.968488|   -3.350030|   -3.360311|
|         239|   -5.973489|   -3.353021|   -3.365045|
|         240|   -5.978238|   -3.354756|   -3.368940|
|         241|   -5.982947|   -3.355677|   -3.372006|
|         242|   -5.987457|   -3.356423|   -3.374615|
|         243|   -5.991400|   -3.357047|   -3.376843|
|         244|   -5.995261|   -3.356918|   -3.378496|
|         245|   -5.999433|   -3.355530|   -3.379247|
|         246|   -6.003531|   -3.352936|   -3.379173|
|         247|   -6.007234|   -3.349658|   -3.378631|
|         248|   -6.010776|   -3.346283|   -3.377924|
|         249|   -6.014346|   -3.343046|   -3.377186|
|         250|   -6.017938|   -3.339740|   -3.376483|
|         251|   -6.021588|   -3.335887|   -3.375681|
|         252|   -6.025255|   -3.331378|   -3.374584|
|         253|   -6.028964|   -3.326446|   -3.373314|
|         254|   -6.033018|   -3.321502|   -3.372203|
|         255|   -6.037074|   -3.316739|   -3.371268|
|         256|   -6.040337|   -3.311685|   -3.370551|
|         257|   -6.043169|   -3.305484|   -3.369534|
|         258|   -6.046059|   -3.297701|   -3.367388|
|         259|   -6.049242|   -3.288370|   -3.363769|
|         260|   -6.051972|   -3.277628|   -3.358438|
|         261|   -6.053741|   -3.265566|   -3.351162|
|         262|   -6.054447|   -3.252270|   -3.341420|
|         263|   -6.053951|   -3.237893|   -3.328744|
|         264|   -6.052120|   -3.222587|   -3.313253|
|         265|   -6.049041|   -3.206578|   -3.295558|
|         266|   -6.045016|   -3.190328|   -3.276575|
|         267|   -6.040532|   -3.174465|   -3.257494|
|         268|   -6.036053|   -3.159557|   -3.239363|
|         269|   -6.031770|   -3.145914|   -3.222774|
|         270|   -6.027738|   -3.133613|   -3.208055|
|         271|   -6.024080|   -3.122683|   -3.195378|
|         272|   -6.021166|   -3.113245|   -3.184938|
|         273|   -6.019308|   -3.105419|   -3.176919|
|         274|   -6.018679|   -3.099234|   -3.171229|
|         275|   -6.019259|   -3.094619|   -3.167405|
|         276|   -6.020924|   -3.091545|   -3.164775|
|         277|   -6.023510|   -3.090018|   -3.163013|
|         278|   -6.027195|   -3.090035|   -3.162497|
|         279|   -6.032788|   -3.091559|   -3.164050|
|         280|   -6.041502|   -3.094600|   -3.168567|
|         281|   -6.054022|   -3.099160|   -3.176474|
|         282|   -6.069860|   -3.104993|   -3.187284|
|         283|   -6.087333|   -3.111644|   -3.199643|
|         284|   -6.103448|   -3.118527|   -3.211852|
|         285|   -6.115356|   -3.124914|   -3.222508|
|         286|   -6.121397|   -3.129910|   -3.230861|
|         287|   -6.121949|   -3.132585|   -3.236878|
|         288|   -6.118062|   -3.132204|   -3.240924|
|         289|   -6.110745|   -3.128522|   -3.243381|
|         290|   -6.100858|   -3.121846|   -3.244296|
|         291|   -6.089312|   -3.112792|   -3.243330|
|         292|   -6.078217|   -3.102080|   -3.240433|
|         293|   -6.068331|   -3.090240|   -3.236012|
|         294|   -6.058773|   -3.078171|   -3.231062|
|         295|   -6.050567|   -3.066920|   -3.226583|
|         296|   -6.044709|   -3.057452|   -3.222942|
|         297|   -6.043331|   -3.049531|   -3.220048|
|         298|   -6.045070|   -3.042118|   -3.217238|
|         299|   -6.047570|   -3.033779|   -3.213239|
|         300|   -6.048100|   -3.023262|   -3.206641|
|         301|   -6.043938|   -3.009837|   -3.196949|
|         302|   -6.034089|   -2.993636|   -3.184807|
|         303|   -6.019775|   -2.976124|   -3.170299|
|         304|   -6.001781|   -2.958844|   -3.152000|
|         305|   -5.978961|   -2.942030|   -3.129133|
|         306|   -5.949572|   -2.924751|   -3.101793|
|         307|   -5.914120|   -2.906539|   -3.070484|
|         308|   -5.877246|   -2.888258|   -3.035381|
|         309|   -5.843548|   -2.871837|   -2.998716|
|         310|   -5.815726|   -2.859244|   -2.964110|
|         311|   -5.793797|   -2.851396|   -2.934692|
|         312|   -5.776912|   -2.847808|   -2.911520|
|         313|   -5.763873|   -2.847280|   -2.894161|
|         314|   -5.750540|   -2.848787|   -2.881716|
|         315|   -5.735411|   -2.851495|   -2.873895|
|         316|   -5.722022|   -2.855125|   -2.870867|
|         317|   -5.716795|   -2.860186|   -2.873056|
|         318|   -5.726577|   -2.867642|   -2.881367|
|         319|   -5.753789|   -2.878223|   -2.895653|
|         320|   -5.789473|   -2.891830|   -2.912313|
|         321|   -5.813861|   -2.906526|   -2.925910|
|         322|   -5.824630|   -2.917497|   -2.933507|
|         323|   -5.831248|   -2.920803|   -2.936115|
|         324|   -5.831488|   -2.917869|   -2.937982|
|         325|   -5.824517|   -2.914342|   -2.943670|
|         326|   -5.812893|   -2.915167|   -2.953354|
|         327|   -5.804229|   -2.921096|   -2.964989|
|         328|   -5.801830|   -2.928832|   -2.977112|
|         329|   -5.801956|   -2.934991|   -2.988706|
|         330|   -5.803390|   -2.938244|   -2.998944|
|         331|   -5.810113|   -2.939144|   -3.007161|
|         332|   -5.826565|   -2.939202|   -3.012809|
|         333|   -5.842223|   -2.940252|   -3.014597|
|         334|   -5.840398|   -2.943844|   -3.011942|
|         335|   -5.828116|   -2.950496|   -3.006692|
|         336|   -5.817495|   -2.959256|   -3.002014|
|         337|   -5.812617|   -2.968779|   -3.000034|
|         338|   -5.815561|   -2.978443|   -3.001342|
|         339|   -5.826415|   -2.988432|   -3.005568|
|         340|   -5.842659|   -2.999127|   -3.012312|
|         341|   -5.861926|   -3.010544|   -3.021755|
|         342|   -5.881923|   -3.022258|   -3.034448|
|         343|   -5.900928|   -3.033825|   -3.050445|
|         344|   -5.917535|   -3.045001|   -3.068879|
|         345|   -5.930773|   -3.055731|   -3.088235|
|         346|   -5.939164|   -3.065972|   -3.106944|
|         347|   -5.943850|   -3.075510|   -3.123702|
|         348|   -5.947171|   -3.083994|   -3.137786|
|         349|   -5.950075|   -3.091054|   -3.149029|
|         350|   -5.953230|   -3.096342|   -3.157676|
|         351|   -5.956019|   -3.099591|   -3.164045|
|         352|   -5.957151|   -3.100559|   -3.168190|
|         353|   -5.956244|   -3.098988|   -3.169963|
|         354|   -5.952567|   -3.094628|   -3.169060|
|         355|   -5.944432|   -3.087337|   -3.165065|
|         356|   -5.930564|   -3.077202|   -3.157502|
|         357|   -5.910914|   -3.064598|   -3.146119|
|         358|   -5.886214|   -3.050202|   -3.131286|
|         359|   -5.855590|   -3.034752|   -3.113828|
|         360|   -5.820322|   -3.019070|   -3.095147|
|         361|   -5.784057|   -3.004330|   -3.077198|
|         362|   -5.749596|   -2.991906|   -3.061921|
|         363|   -5.721789|   -2.983056|   -3.050518|
|         364|   -5.711388|   -2.978644|   -3.045139|
|         365|   -5.709393|   -2.978052|   -3.044983|
|         366|   -5.713124|   -2.979944|   -3.048336|
|         367|   -5.720736|   -2.981862|   -3.052477|
|         368|   -5.726698|   -2.980757|   -3.054877|
|         369|   -5.725080|   -2.974525|   -3.054035|
|         370|   -5.711792|   -2.963253|   -3.048961|
|         371|   -5.693259|   -2.949401|   -3.040343|
|         372|   -5.677544|   -2.936471|   -3.031122|
|         373|   -5.667937|   -2.927314|   -3.024194|
|         374|   -5.677308|   -2.923401|   -3.022061|
|         375|   -5.698280|   -2.924028|   -3.024072|
|         376|   -5.706662|   -2.927483|   -3.026328|
|         377|   -5.699558|   -2.932296|   -3.025838|
|         378|   -5.692281|   -2.936540|   -3.021290|
|         379|   -5.694914|   -2.937307|   -3.013035|
|         380|   -5.698075|   -2.933285|   -3.002284|
|         381|   -5.698675|   -2.928666|   -2.994160|
|         382|   -5.697731|   -2.927991|   -2.992577|
|         383|   -5.693647|   -2.932452|   -2.997665|
|         384|   -5.684324|   -2.940542|   -3.006281|
|         385|   -5.690007|   -2.951066|   -3.016807|
|         386|   -5.701980|   -2.962495|   -3.028402|
|         387|   -5.715487|   -2.973862|   -3.040675|
|         388|   -5.727824|   -2.985096|   -3.052809|
|         389|   -5.737852|   -2.996091|   -3.064078|
|         390|   -5.748716|   -3.006793|   -3.074360|
|         391|   -5.762774|   -3.017292|   -3.084030|
|         392|   -5.779213|   -3.027853|   -3.093612|
|         393|   -5.795740|   -3.038676|   -3.103114|
|         394|   -5.808917|   -3.049838|   -3.111752|
|         395|   -5.817166|   -3.061146|   -3.118703|
|         396|   -5.821316|   -3.072168|   -3.123684|
|         397|   -5.820679|   -3.082370|   -3.126372|
|         398|   -5.816091|   -3.090996|   -3.126571|
|         399|   -5.809117|   -3.097475|   -3.124230|
|         400|   -5.801247|   -3.101289|   -3.119634|
|         401|   -5.793588|   -3.102276|   -3.113375|
|         402|   -5.786438|   -3.100736|   -3.106094|
|         403|   -5.780698|   -3.097132|   -3.098522|
|         404|   -5.776650|   -3.092126|   -3.091395|
|         405|   -5.773891|   -3.086363|   -3.085094|
|         406|   -5.771953|   -3.080291|   -3.079742|
|         407|   -5.770160|   -3.074206|   -3.075255|
|         408|   -5.768008|   -3.068242|   -3.071452|
|         409|   -5.765452|   -3.062555|   -3.068187|
|         410|   -5.762726|   -3.057339|   -3.065461|
|         411|   -5.759575|   -3.052813|   -3.063253|
|         412|   -5.755943|   -3.049100|   -3.061620|
|         413|   -5.751547|   -3.046271|   -3.060556|
|         414|   -5.746801|   -3.044292|   -3.059874|
|         415|   -5.742586|   -3.043159|   -3.059459|
|         416|   -5.740547|   -3.042947|   -3.059583|
|         417|   -5.741174|   -3.043727|   -3.060613|
|         418|   -5.744357|   -3.045439|   -3.062764|
|         419|   -5.749011|   -3.047893|   -3.065921|
|         420|   -5.754383|   -3.050581|   -3.069822|
|         421|   -5.759562|   -3.053094|   -3.074213|
|         422|   -5.763078|   -3.055184|   -3.078738|
|         423|   -5.765060|   -3.056911|   -3.083335|
|         424|   -5.765737|   -3.058520|   -3.087978|
|         425|   -5.765685|   -3.060356|   -3.092718|
|         426|   -5.765939|   -3.062671|   -3.097715|
|         427|   -5.766747|   -3.065568|   -3.103081|
|         428|   -5.768547|   -3.068830|   -3.108935|
|         429|   -5.771021|   -3.072047|   -3.115200|
|         430|   -5.773449|   -3.074590|   -3.121589|
|         431|   -5.774235|   -3.075840|   -3.127399|
|         432|   -5.772797|   -3.075313|   -3.131700|
|         433|   -5.769665|   -3.073041|   -3.133703|
|         434|   -5.766131|   -3.069591|   -3.133568|
|         435|   -5.763501|   -3.066069|   -3.132983|
|         436|   -5.761931|   -3.064139|   -3.134346|
|         437|   -5.763610|   -3.064636|   -3.138773|
|         438|   -5.767495|   -3.067487|   -3.145133|
|         439|   -5.774873|   -3.072035|   -3.152375|
|         440|   -5.785060|   -3.077034|   -3.158749|
|         441|   -5.795365|   -3.081199|   -3.163189|
|         442|   -5.802597|   -3.083555|   -3.165058|
|         443|   -5.805858|   -3.083522|   -3.164088|
|         444|   -5.805504|   -3.080893|   -3.160445|
|         445|   -5.801151|   -3.076033|   -3.154563|
|         446|   -5.793615|   -3.069699|   -3.146670|
|         447|   -5.786601|   -3.062688|   -3.137340|
|         448|   -5.782632|   -3.055579|   -3.127849|
|         449|   -5.781013|   -3.048982|   -3.119337|
|         450|   -5.780253|   -3.043847|   -3.111981|
|         451|   -5.777781|   -3.041064|   -3.105452|
|         452|   -5.775106|   -3.041128|   -3.100496|
|         453|   -5.774060|   -3.044022|   -3.098261|
|         454|   -5.776405|   -3.049120|   -3.098744|
|         455|   -5.780819|   -3.055629|   -3.101961|
|         456|   -5.785878|   -3.063002|   -3.107635|
|         457|   -5.792980|   -3.070641|   -3.115297|
|         458|   -5.800507|   -3.078239|   -3.124389|
|         459|   -5.809827|   -3.085820|   -3.134928|
|         460|   -5.820651|   -3.093847|   -3.147033|
|         461|   -5.832593|   -3.103099|   -3.160773|
|         462|   -5.845915|   -3.114648|   -3.175917|
|         463|   -5.860543|   -3.128564|   -3.191476|
|         464|   -5.873961|   -3.143331|   -3.206054|
|         465|   -5.882312|   -3.156970|   -3.218582|
|         466|   -5.885103|   -3.168400|   -3.228898|
|         467|   -5.883247|   -3.177423|   -3.237343|
|         468|   -5.878507|   -3.184125|   -3.244302|
|         469|   -5.872616|   -3.188468|   -3.249982|
|         470|   -5.866708|   -3.190434|   -3.254467|
|         471|   -5.860412|   -3.190089|   -3.257603|
|         472|   -5.852945|   -3.187818|   -3.259183|
|         473|   -5.845054|   -3.184170|   -3.259295|
|         474|   -5.837078|   -3.180144|   -3.258454|
|         475|   -5.829448|   -3.176685|   -3.257424|
|         476|   -5.823621|   -3.174941|   -3.257298|
|         477|   -5.822794|   -3.175271|   -3.258674|
|         478|   -5.825489|   -3.177020|   -3.260743|
|         479|   -5.829762|   -3.179222|   -3.262891|
|         480|   -5.835982|   -3.180535|   -3.264486|
|         481|   -5.840228|   -3.180224|   -3.265084|
|         482|   -5.841059|   -3.178352|   -3.265202|
|         483|   -5.838075|   -3.175890|   -3.265403|
|         484|   -5.833486|   -3.174228|   -3.266195|
|         485|   -5.830529|   -3.175190|   -3.268950|
|         486|   -5.839280|   -3.178332|   -3.273460|
|         487|   -5.853458|   -3.182271|   -3.278915|
|         488|   -5.868118|   -3.185555|   -3.284185|
|         489|   -5.882167|   -3.187161|   -3.288457|
|         490|   -5.894493|   -3.186689|   -3.291209|
|         491|   -5.903153|   -3.184257|   -3.292392|
|         492|   -5.908782|   -3.180344|   -3.292133|
|         493|   -5.913596|   -3.175557|   -3.290616|
|         494|   -5.921067|   -3.170258|   -3.288201|
|         495|   -5.931072|   -3.164531|   -3.285359|
|         496|   -5.940891|   -3.158388|   -3.282091|
|         497|   -5.948806|   -3.152131|   -3.278101|
|         498|   -5.953723|   -3.146277|   -3.273349|
|         499|   -5.956326|   -3.141490|   -3.268242|
|         500|   -5.957896|   -3.138382|   -3.263545|
|         501|   -5.959771|   -3.137018|   -3.259760|
|         502|   -5.961009|   -3.136853|   -3.256942|
|         503|   -5.961283|   -3.137342|   -3.254934|
|         504|   -5.958909|   -3.138215|   -3.253454|
|         505|   -5.955630|   -3.139310|   -3.252154|
|         506|   -5.950232|   -3.140625|   -3.250919|
|         507|   -5.943650|   -3.142326|   -3.249527|
|         508|   -5.944652|   -3.144521|   -3.247514|
|         509|   -5.948604|   -3.147184|   -3.245434|
|         510|   -5.953348|   -3.150430|   -3.243477|
|         511|   -5.957111|   -3.154363|   -3.241745|
|         512|   -5.960673|   -3.159048|   -3.240339|
|         513|   -5.963392|   -3.164522|   -3.239319|
|         514|   -5.965409|   -3.170733|   -3.238771|
|         515|   -5.966306|   -3.177628|   -3.238659|
|         516|   -5.966808|   -3.185113|   -3.238943|
|         517|   -5.966818|   -3.192999|   -3.239626|
|         518|   -5.966472|   -3.201011|   -3.240753|
|         519|   -5.965518|   -3.208917|   -3.242356|
|         520|   -5.963103|   -3.216463|   -3.244414|
|         521|   -5.958247|   -3.223311|   -3.246734|
|         522|   -5.951108|   -3.229096|   -3.248983|
|         523|   -5.943693|   -3.233548|   -3.250808|
|         524|   -5.936532|   -3.236598|   -3.252181|
|         525|   -5.929567|   -3.238394|   -3.253187|
|         526|   -5.927386|   -3.239146|   -3.254226|
|         527|   -5.929089|   -3.239331|   -3.255729|
|         528|   -5.933010|   -3.239579|   -3.257823|
|         529|   -5.940981|   -3.240044|   -3.260414|
|         530|   -5.950707|   -3.240538|   -3.263080|
|         531|   -5.960672|   -3.240795|   -3.265144|
|         532|   -5.966981|   -3.240750|   -3.265839|
|         533|   -5.968190|   -3.240351|   -3.264625|
|         534|   -5.964501|   -3.239601|   -3.261833|
|         535|   -5.958326|   -3.238551|   -3.258150|
|         536|   -5.952142|   -3.237352|   -3.254435|
|         537|   -5.946859|   -3.236234|   -3.251342|
|         538|   -5.943388|   -3.235425|   -3.249271|
|         539|   -5.940777|   -3.235131|   -3.248294|
|         540|   -5.939740|   -3.235496|   -3.248436|
|         541|   -5.939296|   -3.236649|   -3.249651|
|         542|   -5.939716|   -3.238620|   -3.251865|
|         543|   -5.940608|   -3.241341|   -3.255028|
|         544|   -5.941261|   -3.244702|   -3.258975|
|         545|   -5.942753|   -3.248444|   -3.263586|
|         546|   -5.944124|   -3.252395|   -3.268726|
|         547|   -5.945130|   -3.256419|   -3.274173|
|         548|   -5.945984|   -3.260350|   -3.279709|
|         549|   -5.946676|   -3.264027|   -3.285155|
|         550|   -5.946908|   -3.267341|   -3.290306|
|         551|   -5.946875|   -3.270148|   -3.294906|
|         552|   -5.948782|   -3.272157|   -3.298952|
|         553|   -5.950941|   -3.273371|   -3.302369|
|         554|   -5.951666|   -3.273731|   -3.305015|
|         555|   -5.950954|   -3.273172|   -3.306849|
|         556|   -5.948782|   -3.271663|   -3.307609|
|         557|   -5.946820|   -3.269077|   -3.307178|
|         558|   -5.945094|   -3.265441|   -3.305559|
|         559|   -5.941996|   -3.260962|   -3.302607|
|         560|   -5.937515|   -3.255893|   -3.298203|
|         561|   -5.932733|   -3.250492|   -3.292488|
|         562|   -5.926909|   -3.245125|   -3.285664|
|         563|   -5.921956|   -3.240116|   -3.278101|
|         564|   -5.918946|   -3.235822|   -3.270604|
|         565|   -5.914783|   -3.232761|   -3.263973|
|         566|   -5.912872|   -3.231173|   -3.258946|
|         567|   -5.910813|   -3.231118|   -3.256126|
|         568|   -5.910580|   -3.232406|   -3.255430|
|         569|   -5.913144|   -3.234732|   -3.256715|
|         570|   -5.918918|   -3.237848|   -3.259727|
|         571|   -5.926137|   -3.241663|   -3.264338|
|         572|   -5.933604|   -3.246081|   -3.270232|
|         573|   -5.940857|   -3.250833|   -3.277063|
|         574|   -5.947501|   -3.255600|   -3.284360|
|         575|   -5.953410|   -3.260062|   -3.291679|
|         576|   -5.958420|   -3.263954|   -3.298622|
|         577|   -5.962646|   -3.267103|   -3.304921|
|         578|   -5.966130|   -3.269453|   -3.310443|
|         579|   -5.968964|   -3.271021|   -3.315154|
|         580|   -5.971297|   -3.271905|   -3.319140|
|         581|   -5.973640|   -3.272187|   -3.322525|
|         582|   -5.975418|   -3.271959|   -3.325317|
|         583|   -5.977063|   -3.271268|   -3.327609|
|         584|   -5.978589|   -3.270152|   -3.329445|
|         585|   -5.980143|   -3.268636|   -3.330830|
|         586|   -5.981524|   -3.266725|   -3.331732|
|         587|   -5.982672|   -3.264405|   -3.332155|
|         588|   -5.983534|   -3.261641|   -3.332105|
|         589|   -5.983802|   -3.258365|   -3.331608|
|         590|   -5.984313|   -3.254612|   -3.330735|
|         591|   -5.984150|   -3.250314|   -3.329401|
|         592|   -5.983453|   -3.245425|   -3.327532|
|         593|   -5.982037|   -3.239952|   -3.324984|
|         594|   -5.980530|   -3.233948|   -3.321663|
|         595|   -5.978559|   -3.227454|   -3.317228|
|         596|   -5.975749|   -3.220460|   -3.311316|
|         597|   -5.972080|   -3.213103|   -3.303834|
|         598|   -5.968012|   -3.205624|   -3.294826|
|         599|   -5.962671|   -3.198450|   -3.284567|
|         600|   -5.957299|   -3.191941|   -3.273783|
|         601|   -5.952276|   -3.186307|   -3.263218|
|         602|   -5.947526|   -3.181674|   -3.253469|
|         603|   -5.944143|   -3.177964|   -3.245058|
|         604|   -5.940681|   -3.175135|   -3.237916|
|         605|   -5.938059|   -3.173015|   -3.232082|
|         606|   -5.937270|   -3.171328|   -3.227578|
|         607|   -5.936507|   -3.169924|   -3.224072|
|         608|   -5.936946|   -3.168729|   -3.221581|
|         609|   -5.937855|   -3.167732|   -3.219911|
|         610|   -5.939496|   -3.166906|   -3.219089|
|         611|   -5.941520|   -3.166316|   -3.219177|
|         612|   -5.944657|   -3.165863|   -3.220059|
|         613|   -5.947319|   -3.165656|   -3.221579|
|         614|   -5.950819|   -3.165671|   -3.223558|
|         615|   -5.954320|   -3.165847|   -3.225866|
|         616|   -5.958638|   -3.166054|   -3.228495|
|         617|   -5.963681|   -3.166175|   -3.231342|
|         618|   -5.968422|   -3.166178|   -3.234196|
|         619|   -5.972507|   -3.166000|   -3.236862|
|         620|   -5.975708|   -3.165630|   -3.239205|
|         621|   -5.978364|   -3.165079|   -3.241204|
|         622|   -5.980627|   -3.164343|   -3.242918|
|         623|   -5.982905|   -3.163416|   -3.244447|
|         624|   -5.985312|   -3.162355|   -3.245906|
|         625|   -5.988329|   -3.161256|   -3.247408|
|         626|   -5.992025|   -3.160222|   -3.248932|
|         627|   -5.996241|   -3.159273|   -3.250386|
|         628|   -6.000882|   -3.158333|   -3.251654|
|         629|   -6.005528|   -3.157262|   -3.252583|
|         630|   -6.010142|   -3.155921|   -3.253083|
|         631|   -6.014377|   -3.154216|   -3.253061|
|         632|   -6.018298|   -3.152131|   -3.252494|
|         633|   -6.021878|   -3.149683|   -3.251431|
|         634|   -6.025641|   -3.146959|   -3.249915|
|         635|   -6.029424|   -3.143998|   -3.247946|
|         636|   -6.033467|   -3.140849|   -3.245372|
|         637|   -6.036654|   -3.137426|   -3.241929|
|         638|   -6.037899|   -3.133661|   -3.237341|
|         639|   -6.036350|   -3.129588|   -3.231469|
|         640|   -6.032451|   -3.125324|   -3.224472|
|         641|   -6.027649|   -3.121029|   -3.216810|
|         642|   -6.023396|   -3.116839|   -3.209013|
|         643|   -6.020114|   -3.112820|   -3.201521|
|         644|   -6.017850|   -3.108992|   -3.194692|
|         645|   -6.016251|   -3.105377|   -3.188684|
|         646|   -6.015197|   -3.101991|   -3.183548|
|         647|   -6.014373|   -3.098878|   -3.179220|
|         648|   -6.013734|   -3.096107|   -3.175633|
|         649|   -6.013486|   -3.093714|   -3.172737|
|         650|   -6.013515|   -3.091689|   -3.170549|
|         651|   -6.013960|   -3.090014|   -3.169053|
|         652|   -6.014568|   -3.088616|   -3.168161|
|         653|   -6.014904|   -3.087486|   -3.167666|
|         654|   -6.015288|   -3.086555|   -3.167407|
|         655|   -6.015713|   -3.085729|   -3.167216|
|         656|   -6.015951|   -3.084980|   -3.166993|
|         657|   -6.016762|   -3.084371|   -3.166782|
|         658|   -6.018269|   -3.083997|   -3.166582|
|         659|   -6.020397|   -3.083920|   -3.166359|
|         660|   -6.022455|   -3.084106|   -3.165967|
|         661|   -6.024980|   -3.084428|   -3.165318|
|         662|   -6.026614|   -3.084734|   -3.164243|
|         663|   -6.027126|   -3.084890|   -3.162671|
|         664|   -6.025748|   -3.084831|   -3.160562|
|         665|   -6.023205|   -3.084551|   -3.158091|
|         666|   -6.019441|   -3.084110|   -3.155432|
|         667|   -6.015751|   -3.083642|   -3.152858|
|         668|   -6.012167|   -3.083337|   -3.150533|
|         669|   -6.010103|   -3.083340|   -3.148679|
|         670|   -6.008586|   -3.083807|   -3.147329|
|         671|   -6.008359|   -3.084805|   -3.146593|
|         672|   -6.008632|   -3.086351|   -3.146459|
|         673|   -6.009494|   -3.088432|   -3.146932|
|         674|   -6.010414|   -3.091002|   -3.147954|
|         675|   -6.011240|   -3.093983|   -3.149452|
|         676|   -6.012588|   -3.097267|   -3.151361|
|         677|   -6.013274|   -3.100738|   -3.153651|
|         678|   -6.012538|   -3.104316|   -3.156256|
|         679|   -6.010520|   -3.107944|   -3.159138|
|         680|   -6.007767|   -3.111577|   -3.162263|
|         681|   -6.005580|   -3.115193|   -3.165626|
|         682|   -6.003517|   -3.118799|   -3.169198|
|         683|   -6.001456|   -3.122409|   -3.172946|
|         684|   -5.999261|   -3.126013|   -3.176832|
|         685|   -5.997092|   -3.129566|   -3.180829|
|         686|   -5.994945|   -3.133002|   -3.184900|
|         687|   -5.992907|   -3.136288|   -3.189012|
|         688|   -5.990935|   -3.139447|   -3.193102|
|         689|   -5.990558|   -3.142538|   -3.197140|
|         690|   -5.990975|   -3.145603|   -3.201041|
|         691|   -5.990812|   -3.148565|   -3.204574|
|         692|   -5.989745|   -3.151211|   -3.207524|
|         693|   -5.987063|   -3.153250|   -3.209644|
|         694|   -5.982353|   -3.154412|   -3.210760|
|         695|   -5.975532|   -3.154536|   -3.210758|
|         696|   -5.968362|   -3.153581|   -3.209699|
|         697|   -5.961041|   -3.151601|   -3.207809|
|         698|   -5.952544|   -3.148744|   -3.205260|
|         699|   -5.943815|   -3.145133|   -3.202346|
|         700|   -5.934956|   -3.140858|   -3.199256|
|         701|   -5.926302|   -3.135953|   -3.196125|
|         702|   -5.917837|   -3.130408|   -3.193003|
|         703|   -5.909445|   -3.124205|   -3.189872|
|         704|   -5.900989|   -3.117349|   -3.186635|
|         705|   -5.892594|   -3.109880|   -3.183185|
|         706|   -5.884205|   -3.101918|   -3.179388|
|         707|   -5.875441|   -3.093657|   -3.175045|
|         708|   -5.866714|   -3.085302|   -3.170101|
|         709|   -5.858081|   -3.077028|   -3.164532|
|         710|   -5.849113|   -3.068921|   -3.158332|
|         711|   -5.840513|   -3.061012|   -3.151559|
|         712|   -5.832999|   -3.053353|   -3.144405|
|         713|   -5.828306|   -3.045641|   -3.137168|
|         714|   -5.821283|   -3.037995|   -3.129081|
|         715|   -5.816928|   -3.030684|   -3.120786|
|         716|   -5.813351|   -3.024003|   -3.111829|
|         717|   -5.810074|   -3.018705|   -3.102566|
|         718|   -5.806354|   -3.015505|   -3.093488|
|         719|   -5.800216|   -3.015094|   -3.085213|
|         720|   -5.792355|   -3.017673|   -3.078698|
|         721|   -5.785586|   -3.022762|   -3.074870|
|         722|   -5.780977|   -3.029192|   -3.074147|
|         723|   -5.778915|   -3.035331|   -3.076497|
|         724|   -5.777555|   -3.039941|   -3.081170|
|         725|   -5.775411|   -3.042351|   -3.086792|
|         726|   -5.774920|   -3.042330|   -3.092320|
|         727|   -5.772486|   -3.039480|   -3.096646|
|         728|   -5.766801|   -3.034162|   -3.099163|
|         729|   -5.758371|   -3.026782|   -3.099655|
|         730|   -5.748595|   -3.018242|   -3.098253|
|         731|   -5.737267|   -3.009275|   -3.094788|
|         732|   -5.728495|   -3.000567|   -3.090185|
|         733|   -5.718809|   -2.991953|   -3.083947|
|         734|   -5.707677|   -2.983504|   -3.076831|
|         735|   -5.693794|   -2.974525|   -3.068591|
|         736|   -5.675616|   -2.964503|   -3.059086|
|         737|   -5.651685|   -2.952575|   -3.048271|
|         738|   -5.620068|   -2.937995|   -3.035591|
|         739|   -5.576133|   -2.919188|   -3.019374|
|         740|   -5.521332|   -2.894853|   -2.999535|
|         741|   -5.446889|   -2.859853|   -2.970544|
|         742|   -5.402633|   -2.825537|   -2.939394|
|         743|   -5.428648|   -2.812108|   -2.928502|
|         744|   -5.458839|   -2.807074|   -2.918488|
|         745|   -5.493162|   -2.814265|   -2.915723|
|         746|   -5.522794|   -2.822461|   -2.913908|
|         747|   -5.553087|   -2.832578|   -2.913365|
|         748|   -5.589130|   -2.843726|   -2.915139|
|         749|   -5.614775|   -2.854169|   -2.916103|
|         750|   -5.645212|   -2.865956|   -2.919576|
|         751|   -5.666890|   -2.876994|   -2.924251|
|         752|   -5.675595|   -2.888256|   -2.930895|
|         753|   -5.671328|   -2.900019|   -2.939121|
|         754|   -5.683854|   -2.912741|   -2.949986|
|         755|   -5.694958|   -2.925608|   -2.962275|
|         756|   -5.705068|   -2.939270|   -2.976331|
|         757|   -5.714260|   -2.953641|   -2.991771|
|         758|   -5.722784|   -2.968827|   -3.008430|
|         759|   -5.730658|   -2.984682|   -3.025982|
|         760|   -5.739287|   -3.000837|   -3.044026|
|         761|   -5.746650|   -3.016991|   -3.062260|
|         762|   -5.752943|   -3.032917|   -3.080248|
|         763|   -5.759139|   -3.048261|   -3.097542|
|         764|   -5.763649|   -3.062709|   -3.113253|
|         765|   -5.775931|   -3.075476|   -3.127012|
|         766|   -5.787530|   -3.086236|   -3.138084|
|         767|   -5.798183|   -3.094741|   -3.146448|
|         768|   -5.805573|   -3.100959|   -3.151879|
|         769|   -5.810330|   -3.104932|   -3.154427|
|         770|   -5.812611|   -3.106857|   -3.154238|
|         771|   -5.813650|   -3.107050|   -3.151735|
|         772|   -5.813706|   -3.105879|   -3.147327|
|         773|   -5.812878|   -3.103795|   -3.141500|
|         774|   -5.810539|   -3.101396|   -3.134944|
|         775|   -5.806436|   -3.099419|   -3.128384|
|         776|   -5.800783|   -3.098580|   -3.122388|
|         777|   -5.795292|   -3.098956|   -3.117454|
|         778|   -5.789124|   -3.100448|   -3.114271|
|         779|   -5.782536|   -3.103977|   -3.113641|
|         780|   -5.781380|   -3.109973|   -3.115713|
|         781|   -5.786341|   -3.117457|   -3.120091|
|         782|   -5.792387|   -3.125010|   -3.126201|
|         783|   -5.798604|   -3.131751|   -3.133332|
|         784|   -5.804219|   -3.137452|   -3.140803|
|         785|   -5.808738|   -3.142200|   -3.148000|
|         786|   -5.811736|   -3.146142|   -3.154544|
|         787|   -5.813126|   -3.149378|   -3.160196|
|         788|   -5.812538|   -3.152041|   -3.164841|
|         789|   -5.811504|   -3.154230|   -3.168455|
|         790|   -5.809704|   -3.156017|   -3.171103|
|         791|   -5.807101|   -3.157490|   -3.172983|
|         792|   -5.803366|   -3.158731|   -3.174212|
|         793|   -5.799189|   -3.159801|   -3.174918|
|         794|   -5.794860|   -3.160752|   -3.175186|
|         795|   -5.791397|   -3.161660|   -3.175063|
|         796|   -5.790221|   -3.162577|   -3.174565|
|         797|   -5.788858|   -3.163566|   -3.173800|
|         798|   -5.786975|   -3.164682|   -3.172812|
|         799|   -5.785200|   -3.165834|   -3.171686|
|         800|   -5.784174|   -3.166914|   -3.170495|
|         801|   -5.782544|   -3.167898|   -3.169181|
|         802|   -5.780468|   -3.168944|   -3.167685|
|         803|   -5.777276|   -3.170220|   -3.165992|
|         804|   -5.774123|   -3.171813|   -3.164211|
|         805|   -5.770927|   -3.173708|   -3.162487|
|         806|   -5.768112|   -3.175919|   -3.160973|
|         807|   -5.766012|   -3.178331|   -3.159724|
|         808|   -5.764118|   -3.180829|   -3.158839|
|         809|   -5.762807|   -3.183448|   -3.158366|
|         810|   -5.761802|   -3.186028|   -3.158178|
|         811|   -5.761012|   -3.188276|   -3.158241|
|         812|   -5.760291|   -3.190104|   -3.158631|
|         813|   -5.760505|   -3.191418|   -3.159380|
|         814|   -5.762844|   -3.192104|   -3.160445|
|         815|   -5.771579|   -3.191995|   -3.161704|
|         816|   -5.786011|   -3.191012|   -3.163212|
|         817|   -5.801732|   -3.189325|   -3.164932|
|         818|   -5.815108|   -3.187313|   -3.166717|
|         819|   -5.824967|   -3.185210|   -3.168442|
|         820|   -5.831220|   -3.183243|   -3.170081|
|         821|   -5.835350|   -3.181641|   -3.171624|
|         822|   -5.838100|   -3.180641|   -3.173082|
|         823|   -5.841041|   -3.180384|   -3.174510|
|         824|   -5.843188|   -3.181004|   -3.175868|
|         825|   -5.853303|   -3.182353|   -3.177168|
|         826|   -5.868620|   -3.184198|   -3.178699|
|         827|   -5.883627|   -3.186490|   -3.180447|
|         828|   -5.895014|   -3.189187|   -3.182375|
|         829|   -5.902407|   -3.192276|   -3.184299|
|         830|   -5.905285|   -3.195747|   -3.186227|
|         831|   -5.906123|   -3.199581|   -3.188092|
|         832|   -5.905729|   -3.203738|   -3.190046|
|         833|   -5.904624|   -3.208181|   -3.192249|
|         834|   -5.904651|   -3.212807|   -3.194872|
|         835|   -5.904232|   -3.217481|   -3.198038|
|         836|   -5.904237|   -3.222111|   -3.201772|
|         837|   -5.904367|   -3.226613|   -3.206069|
|         838|   -5.905434|   -3.230893|   -3.210899|
|         839|   -5.907291|   -3.234826|   -3.216121|
|         840|   -5.909706|   -3.238315|   -3.221561|
|         841|   -5.914375|   -3.241308|   -3.227058|
|         842|   -5.920691|   -3.243869|   -3.232497|
|         843|   -5.927790|   -3.246159|   -3.237795|
|         844|   -5.935405|   -3.248356|   -3.242909|
|         845|   -5.942670|   -3.250633|   -3.247805|
|         846|   -5.947862|   -3.253120|   -3.252459|
|         847|   -5.951035|   -3.255842|   -3.256851|
|         848|   -5.953963|   -3.258716|   -3.260929|
|         849|   -5.959202|   -3.261647|   -3.264625|
|         850|   -5.964440|   -3.264588|   -3.267998|
|         851|   -5.968286|   -3.267464|   -3.271057|
|         852|   -5.970214|   -3.270153|   -3.273834|
|         853|   -5.970776|   -3.272533|   -3.276339|
|         854|   -5.972738|   -3.274512|   -3.278534|
|         855|   -5.975543|   -3.276056|   -3.280474|
|         856|   -5.979831|   -3.277212|   -3.282193|
|         857|   -5.983869|   -3.278121|   -3.283933|
|         858|   -5.988217|   -3.279069|   -3.285719|
|         859|   -5.995379|   -3.280335|   -3.287561|
|         860|   -6.003606|   -3.282136|   -3.289529|
|         861|   -6.009870|   -3.284628|   -3.291553|
|         862|   -6.013845|   -3.287825|   -3.293546|
|         863|   -6.016280|   -3.291531|   -3.295517|
|         864|   -6.017498|   -3.295451|   -3.297561|
|         865|   -6.016528|   -3.299372|   -3.299717|
|         866|   -6.014739|   -3.303195|   -3.301944|
|         867|   -6.016876|   -3.306784|   -3.304177|
|         868|   -6.023392|   -3.310057|   -3.306528|
|         869|   -6.029161|   -3.313088|   -3.309106|
|         870|   -6.033747|   -3.315941|   -3.311898|
|         871|   -6.036511|   -3.318676|   -3.314980|
|         872|   -6.041759|   -3.321165|   -3.318253|
|         873|   -6.049420|   -3.323259|   -3.321741|
|         874|   -6.056543|   -3.324850|   -3.325394|
|         875|   -6.061695|   -3.325756|   -3.329051|
|         876|   -6.064349|   -3.325769|   -3.332489|
|         877|   -6.066604|   -3.324690|   -3.335390|
|         878|   -6.067702|   -3.322516|   -3.337657|
|         879|   -6.066354|   -3.319409|   -3.339085|
|         880|   -6.065568|   -3.315486|   -3.339369|
|         881|   -6.062363|   -3.310962|   -3.338514|
|         882|   -6.058617|   -3.306103|   -3.336333|
|         883|   -6.057157|   -3.301309|   -3.333150|
|         884|   -6.054621|   -3.296971|   -3.329469|
|         885|   -6.050073|   -3.293478|   -3.325766|
|         886|   -6.047745|   -3.290997|   -3.322481|
|         887|   -6.045596|   -3.289457|   -3.320197|
|         888|   -6.041750|   -3.288727|   -3.318950|
|         889|   -6.038689|   -3.288635|   -3.318624|
|         890|   -6.036934|   -3.289108|   -3.319087|
|         891|   -6.034704|   -3.290179|   -3.320304|
|         892|   -6.031480|   -3.291922|   -3.322063|
|         893|   -6.027785|   -3.294181|   -3.324244|
|         894|   -6.024221|   -3.296793|   -3.326725|
|         895|   -6.021022|   -3.299584|   -3.329509|
|         896|   -6.018717|   -3.302427|   -3.332527|
|         897|   -6.019662|   -3.305049|   -3.335559|
|         898|   -6.024081|   -3.307290|   -3.338542|
|         899|   -6.028043|   -3.309066|   -3.341453|
|         900|   -6.029521|   -3.310145|   -3.344076|
|         901|   -6.028117|   -3.310343|   -3.346078|
|         902|   -6.026831|   -3.309455|   -3.347043|
|         903|   -6.024057|   -3.307462|   -3.346918|
|         904|   -6.018675|   -3.304523|   -3.345518|
|         905|   -6.017878|   -3.300835|   -3.342683|
|         906|   -6.020528|   -3.296862|   -3.338916|
|         907|   -6.021000|   -3.293191|   -3.334713|
|         908|   -6.021098|   -3.290300|   -3.330598|
|         909|   -6.019425|   -3.288474|   -3.327246|
|         910|   -6.015336|   -3.287709|   -3.324986|
|         911|   -6.011502|   -3.287873|   -3.323838|
|         912|   -6.005490|   -3.288778|   -3.323826|
|         913|   -5.997653|   -3.290194|   -3.324625|
|         914|   -5.990217|   -3.291927|   -3.326037|
|         915|   -5.981717|   -3.293987|   -3.327973|
|         916|   -5.972432|   -3.296422|   -3.330336|
|         917|   -5.962898|   -3.299216|   -3.333208|
|         918|   -5.953682|   -3.302271|   -3.336565|
|         919|   -5.948630|   -3.305325|   -3.340280|
|         920|   -5.944058|   -3.308365|   -3.344516|
|         921|   -5.937522|   -3.311395|   -3.349046|
|         922|   -5.936352|   -3.314013|   -3.353428|
|         923|   -5.936624|   -3.316183|   -3.357797|
|         924|   -5.936456|   -3.318014|   -3.361996|
|         925|   -5.936287|   -3.319452|   -3.365900|
|         926|   -5.936329|   -3.320441|   -3.369427|
|         927|   -5.937083|   -3.321095|   -3.372610|
|         928|   -5.938389|   -3.321699|   -3.375463|
|         929|   -5.940478|   -3.322464|   -3.378231|
|         930|   -5.943090|   -3.323344|   -3.380971|
|         931|   -5.946223|   -3.324205|   -3.383590|
|         932|   -5.949194|   -3.324773|   -3.385790|
|         933|   -5.951649|   -3.324684|   -3.387176|
|         934|   -5.953036|   -3.323748|   -3.387411|
|         935|   -5.953132|   -3.322048|   -3.386239|
|         936|   -5.951838|   -3.319705|   -3.383602|
|         937|   -5.948975|   -3.316901|   -3.379740|
|         938|   -5.944757|   -3.313546|   -3.374985|
|         939|   -5.940324|   -3.309557|   -3.369663|
|         940|   -5.936606|   -3.305184|   -3.364216|
|         941|   -5.933666|   -3.300881|   -3.359169|
|         942|   -5.931349|   -3.297005|   -3.354963|
|         943|   -5.930003|   -3.293604|   -3.351681|
|         944|   -5.929597|   -3.290591|   -3.349273|
|         945|   -5.929909|   -3.287780|   -3.347527|
|         946|   -5.930680|   -3.285017|   -3.346204|
|         947|   -5.931911|   -3.282404|   -3.345281|
|         948|   -5.933889|   -3.280315|   -3.344919|
|         949|   -5.936757|   -3.278997|   -3.345222|
|         950|   -5.940291|   -3.278284|   -3.346210|
|         951|   -5.944132|   -3.277676|   -3.347835|
|         952|   -5.948886|   -3.276783|   -3.349974|
|         953|   -5.953424|   -3.275361|   -3.352081|
|         954|   -5.957881|   -3.273390|   -3.353944|
|         955|   -5.961084|   -3.271025|   -3.355275|
|         956|   -5.962796|   -3.268416|   -3.355924|
|         957|   -5.962811|   -3.265463|   -3.355775|
|         958|   -5.961198|   -3.261919|   -3.354718|
|         959|   -5.958078|   -3.257495|   -3.352659|
|         960|   -5.953744|   -3.251959|   -3.349696|
|         961|   -5.948739|   -3.245268|   -3.345878|
|         962|   -5.943399|   -3.237551|   -3.340856|
|         963|   -5.937887|   -3.228792|   -3.333978|
|         964|   -5.931540|   -3.218719|   -3.324461|
|         965|   -5.923788|   -3.207008|   -3.311537|
|         966|   -5.913944|   -3.193645|   -3.294595|
|         967|   -5.902045|   -3.179167|   -3.273524|
|         968|   -5.890450|   -3.164710|   -3.249494|
|         969|   -5.880579|   -3.151727|   -3.225176|
|         970|   -5.872073|   -3.141361|   -3.203301|
|         971|   -5.866783|   -3.134235|   -3.185845|
|         972|   -5.863703|   -3.130222|   -3.173450|
|         973|   -5.861716|   -3.129055|   -3.165710|
|         974|   -5.861052|   -3.130341|   -3.161924|
|         975|   -5.865763|   -3.133468|   -3.161436|
|         976|   -5.874187|   -3.137772|   -3.164016|
|         977|   -5.883756|   -3.142626|   -3.169102|
|         978|   -5.892880|   -3.147345|   -3.175904|
|         979|   -5.900052|   -3.151153|   -3.183380|
|         980|   -5.903431|   -3.153201|   -3.190300|
|         981|   -5.902234|   -3.152545|   -3.195349|
|         982|   -5.895247|   -3.148236|   -3.197098|
|         983|   -5.882748|   -3.139987|   -3.194660|
|         984|   -5.867176|   -3.129122|   -3.188651|
|         985|   -5.856132|   -3.117555|   -3.182145|
|         986|   -5.850814|   -3.108798|   -3.179321|
|         987|   -5.848453|   -3.105434|   -3.182566|
|         988|   -5.847246|   -3.107645|   -3.190281|
|         989|   -5.852438|   -3.113163|   -3.198789|
|         990|   -5.865879|   -3.119571|   -3.206198|
|         991|   -5.883056|   -3.125986|   -3.211871|
|         992|   -5.901758|   -3.132967|   -3.216416|
|         993|   -5.922562|   -3.141428|   -3.221333|
|         994|   -5.946923|   -3.151496|   -3.227800|
|         995|   -5.973853|   -3.162672|   -3.235803|
|         996|   -5.999794|   -3.174141|   -3.244468|
|         997|   -6.014905|   -3.185291|   -3.253346|
|         998|   -6.021385|   -3.195251|   -3.261467|
|         999|   -6.024928|   -3.203662|   -3.269202|
|        1000|   -6.026004|   -3.210361|   -3.276192|
|        1001|   -6.028130|   -3.215536|   -3.282473|
|        1002|   -6.030228|   -3.219543|   -3.287799|
|        1003|   -6.032657|   -3.222744|   -3.292160|
|        1004|   -6.035751|   -3.225351|   -3.295541|
|        1005|   -6.039615|   -3.227434|   -3.298067|
|        1006|   -6.042851|   -3.229050|   -3.299810|
|        1007|   -6.046151|   -3.230259|   -3.300954|
|        1008|   -6.047812|   -3.231179|   -3.301489|
|        1009|   -6.050642|   -3.231875|   -3.301718|
|        1010|   -6.053818|   -3.232470|   -3.301837|
|        1011|   -6.057110|   -3.233115|   -3.302099|
|        1012|   -6.060328|   -3.233911|   -3.302706|
|        1013|   -6.063029|   -3.234883|   -3.303824|
|        1014|   -6.065102|   -3.235959|   -3.305515|
|        1015|   -6.065619|   -3.236995|   -3.307604|
|        1016|   -6.065479|   -3.237795|   -3.309886|
|        1017|   -6.064183|   -3.238180|   -3.311947|
|        1018|   -6.062816|   -3.238006|   -3.313623|
|        1019|   -6.061025|   -3.237203|   -3.314796|
|        1020|   -6.058879|   -3.235803|   -3.315500|
|        1021|   -6.056214|   -3.233844|   -3.315711|
|        1022|   -6.052701|   -3.231349|   -3.315380|
|        1023|   -6.048426|   -3.228345|   -3.314509|
|        1024|   -6.043012|   -3.224879|   -3.313057|
|        1025|   -6.037249|   -3.221018|   -3.311147|
|        1026|   -6.030224|   -3.216831|   -3.308739|
|        1027|   -6.023749|   -3.212376|   -3.306096|
|        1028|   -6.016725|   -3.207703|   -3.303128|
|        1029|   -6.010250|   -3.202796|   -3.299968|
|        1030|   -6.003659|   -3.197589|   -3.296556|
|        1031|   -5.997082|   -3.191893|   -3.292932|
|        1032|   -5.989068|   -3.185367|   -3.288994|
|        1033|   -5.979035|   -3.177630|   -3.284624|
|        1034|   -5.965832|   -3.168368|   -3.279413|
|        1035|   -5.949625|   -3.157530|   -3.272802|
|        1036|   -5.930664|   -3.145318|   -3.264259|
|        1037|   -5.910536|   -3.132124|   -3.253934|
|        1038|   -5.891842|   -3.118393|   -3.242673|
|        1039|   -5.875793|   -3.104479|   -3.231400|
|        1040|   -5.862761|   -3.090630|   -3.220740|
|        1041|   -5.852860|   -3.076940|   -3.210353|
|        1042|   -5.845750|   -3.063511|   -3.199856|
|        1043|   -5.838692|   -3.051035|   -3.189593|
|        1044|   -5.825031|   -3.040296|   -3.180727|
|        1045|   -5.805325|   -3.031320|   -3.174124|
|        1046|   -5.793820|   -3.023451|   -3.168475|
|        1047|   -5.794785|   -3.015423|   -3.157898|
|        1048|   -5.796025|   -3.005903|   -3.137332|
|        1049|   -5.797738|   -2.999223|   -3.111793|
|        1050|   -5.804931|   -3.003513|   -3.095183|
|        1051|   -5.821904|   -3.014230|   -3.091496|
|        1052|   -5.839393|   -3.028213|   -3.098733|
|        1053|   -5.852759|   -3.043811|   -3.112092|
|        1054|   -5.861732|   -3.059016|   -3.126631|
|        1055|   -5.871361|   -3.071368|   -3.139736|
|        1056|   -5.880184|   -3.079653|   -3.150346|
|        1057|   -5.888070|   -3.083965|   -3.157997|
|        1058|   -5.892243|   -3.085250|   -3.162035|
|        1059|   -5.890597|   -3.084582|   -3.162057|
|        1060|   -5.882411|   -3.082672|   -3.158208|
|        1061|   -5.869070|   -3.079814|   -3.151281|
|        1062|   -5.854084|   -3.076029|   -3.142434|
|        1063|   -5.839008|   -3.071300|   -3.132731|
|        1064|   -5.826526|   -3.065649|   -3.122997|
|        1065|   -5.815873|   -3.059188|   -3.113539|
|        1066|   -5.806990|   -3.052013|   -3.104364|
|        1067|   -5.800683|   -3.044145|   -3.095824|
|        1068|   -5.790645|   -3.035702|   -3.087201|
|        1069|   -5.782548|   -3.026944|   -3.079151|
|        1070|   -5.770272|   -3.018434|   -3.071200|
|        1071|   -5.760221|   -3.010753|   -3.064323|
|        1072|   -5.749910|   -3.004470|   -3.058873|
|        1073|   -5.740722|   -2.999755|   -3.055144|
|        1074|   -5.734046|   -2.996397|   -3.052888|
|        1075|   -5.731811|   -2.993852|   -3.051891|
|        1076|   -5.730464|   -2.991800|   -3.051426|
|        1077|   -5.728318|   -2.990195|   -3.050732|
|        1078|   -5.725604|   -2.988962|   -3.049196|
|        1079|   -5.726974|   -2.987924|   -3.047321|
|        1080|   -5.728635|   -2.987036|   -3.045357|
|        1081|   -5.729949|   -2.986526|   -3.043868|
|        1082|   -5.729358|   -2.987300|   -3.042930|
|        1083|   -5.728983|   -2.989395|   -3.042889|
|        1084|   -5.729670|   -2.992403|   -3.043977|
|        1085|   -5.730382|   -2.996209|   -3.046151|
|        1086|   -5.733620|   -3.000737|   -3.049468|
|        1087|   -5.740995|   -3.005882|   -3.054097|
|        1088|   -5.749543|   -3.011591|   -3.059805|
|        1089|   -5.759236|   -3.017692|   -3.066422|
|        1090|   -5.768676|   -3.023763|   -3.073509|
|        1091|   -5.776257|   -3.029237|   -3.080490|
|        1092|   -5.780941|   -3.033746|   -3.086847|
|        1093|   -5.784523|   -3.037284|   -3.092342|
|        1094|   -5.788400|   -3.040721|   -3.097614|
|        1095|   -5.793940|   -3.045121|   -3.103963|
|        1096|   -5.802314|   -3.050937|   -3.112189|
|        1097|   -5.812943|   -3.057499|   -3.121755|
|        1098|   -5.824743|   -3.063490|   -3.131368|
|        1099|   -5.836147|   -3.067891|   -3.139789|
|        1100|   -5.845947|   -3.070405|   -3.146292|
|        1101|   -5.853705|   -3.071321|   -3.150714|
|        1102|   -5.859545|   -3.071187|   -3.153246|
|        1103|   -5.863869|   -3.070579|   -3.154329|
|        1104|   -5.867286|   -3.070014|   -3.154519|
|        1105|   -5.870228|   -3.069949|   -3.154480|
|        1106|   -5.872987|   -3.070722|   -3.154777|
|        1107|   -5.875372|   -3.072466|   -3.155715|
|        1108|   -5.877917|   -3.075086|   -3.157316|
|        1109|   -5.881021|   -3.078359|   -3.159457|
|        1110|   -5.884933|   -3.082023|   -3.162120|
|        1111|   -5.889226|   -3.085929|   -3.165304|
|        1112|   -5.893261|   -3.089884|   -3.168915|
|        1113|   -5.896093|   -3.093595|   -3.172557|
|        1114|   -5.897996|   -3.096659|   -3.175655|
|        1115|   -5.899509|   -3.098838|   -3.177678|
|        1116|   -5.902189|   -3.100115|   -3.178563|
|        1117|   -5.905666|   -3.100950|   -3.178840|
|        1118|   -5.908875|   -3.102034|   -3.179267|
|        1119|   -5.913373|   -3.103800|   -3.180600|
|        1120|   -5.918017|   -3.106242|   -3.182683|
|        1121|   -5.923175|   -3.108921|   -3.185001|
|        1122|   -5.928120|   -3.111255|   -3.186831|
|        1123|   -5.931851|   -3.112827|   -3.187753|
|        1124|   -5.934007|   -3.113515|   -3.187653|
|        1125|   -5.934184|   -3.113480|   -3.186753|
|        1126|   -5.931637|   -3.113030|   -3.185318|
|        1127|   -5.926189|   -3.112426|   -3.183560|
|        1128|   -5.918248|   -3.111865|   -3.181576|
|        1129|   -5.908203|   -3.111420|   -3.179356|
|        1130|   -5.897354|   -3.111024|   -3.176948|
|        1131|   -5.887033|   -3.110520|   -3.174426|
|        1132|   -5.879389|   -3.109706|   -3.171927|
|        1133|   -5.873989|   -3.108501|   -3.169357|
|        1134|   -5.871331|   -3.107049|   -3.166627|
|        1135|   -5.871190|   -3.105609|   -3.163663|
|        1136|   -5.872119|   -3.104458|   -3.160385|
|        1137|   -5.875516|   -3.103797|   -3.157170|
|        1138|   -5.878766|   -3.103767|   -3.154100|
|        1139|   -5.882646|   -3.104465|   -3.151413|
|        1140|   -5.886217|   -3.105922|   -3.149074|
|        1141|   -5.889758|   -3.108098|   -3.147142|
|        1142|   -5.892675|   -3.110873|   -3.145675|
|        1143|   -5.895198|   -3.114104|   -3.144777|
|        1144|   -5.897205|   -3.117650|   -3.144506|
|        1145|   -5.899255|   -3.121344|   -3.144940|
|        1146|   -5.900480|   -3.125070|   -3.145993|
|        1147|   -5.901717|   -3.128718|   -3.147604|
|        1148|   -5.902657|   -3.132224|   -3.149611|
|        1149|   -5.903686|   -3.135581|   -3.151907|
|        1150|   -5.904185|   -3.138778|   -3.154324|
|        1151|   -5.904853|   -3.141822|   -3.156794|
|        1152|   -5.904944|   -3.144682|   -3.159200|
|        1153|   -5.904328|   -3.147313|   -3.161424|
|        1154|   -5.903700|   -3.149628|   -3.163425|
|        1155|   -5.902208|   -3.151617|   -3.165080|
|        1156|   -5.900089|   -3.153286|   -3.166366|
|        1157|   -5.896994|   -3.154668|   -3.167239|
|        1158|   -5.893040|   -3.155766|   -3.167715|
|        1159|   -5.887305|   -3.156559|   -3.167777|
|        1160|   -5.879918|   -3.156936|   -3.167419|
|        1161|   -5.870039|   -3.156694|   -3.166592|
|        1162|   -5.858196|   -3.155555|   -3.165303|
|        1163|   -5.844162|   -3.153256|   -3.163429|
|        1164|   -5.834237|   -3.149703|   -3.161482|
|        1165|   -5.824377|   -3.145151|   -3.159801|
|        1166|   -5.810687|   -3.140185|   -3.158345|
|        1167|   -5.794167|   -3.135451|   -3.156501|
|        1168|   -5.779800|   -3.131006|   -3.154160|
|        1169|   -5.771775|   -3.126796|   -3.152217|
|        1170|   -5.772147|   -3.122933|   -3.151254|
|        1171|   -5.770408|   -3.119816|   -3.150281|
|        1172|   -5.776912|   -3.117583|   -3.149834|
|        1173|   -5.781917|   -3.116120|   -3.149527|
|        1174|   -5.788691|   -3.115230|   -3.149327|
|        1175|   -5.795937|   -3.114626|   -3.149293|
|        1176|   -5.802058|   -3.114087|   -3.149124|
|        1177|   -5.809685|   -3.113431|   -3.149134|
|        1178|   -5.813776|   -3.112553|   -3.148967|
|        1179|   -5.820432|   -3.111463|   -3.148878|
|        1180|   -5.822727|   -3.110073|   -3.148599|
|        1181|   -5.826534|   -3.108560|   -3.148516|
|        1182|   -5.826326|   -3.106795|   -3.148423|
|        1183|   -5.823302|   -3.104943|   -3.148287|
|        1184|   -5.820348|   -3.102780|   -3.148312|
|        1185|   -5.813517|   -3.100088|   -3.148104|
|        1186|   -5.802707|   -3.096865|   -3.147677|
|        1187|   -5.788733|   -3.093215|   -3.146947|
|        1188|   -5.774080|   -3.089433|   -3.146168|
|        1189|   -5.759062|   -3.085614|   -3.145296|
|        1190|   -5.743950|   -3.081657|   -3.144103|
|        1191|   -5.736293|   -3.077559|   -3.142927|
|        1192|   -5.731616|   -3.072642|   -3.141425|
|        1193|   -5.725977|   -3.066906|   -3.139242|
|        1194|   -5.719640|   -3.060283|   -3.136203|
|        1195|   -5.715655|   -3.052785|   -3.132354|
|        1196|   -5.712599|   -3.044188|   -3.127489|
|        1197|   -5.710318|   -3.034642|   -3.121832|
|        1198|   -5.707764|   -3.024428|   -3.115419|
|        1199|   -5.704860|   -3.014089|   -3.108503|
|        1200|   -5.703253|   -3.004119|   -3.101760|
|        1201|   -5.701569|   -2.994959|   -3.095187|
|        1202|   -5.701677|   -2.987019|   -3.089337|
|        1203|   -5.701915|   -2.980433|   -3.083878|
|        1204|   -5.702311|   -2.975361|   -3.078917|
|        1205|   -5.699782|   -2.971862|   -3.073950|
|        1206|   -5.691792|   -2.969898|   -3.068326|
|        1207|   -5.677134|   -2.969081|   -3.061328|
|        1208|   -5.657484|   -2.968716|   -3.052197|
|        1209|   -5.634241|   -2.968471|   -3.039889|
|        1210|   -5.607715|   -2.968301|   -3.025471|
[...]
|        7973|   -3.037155|    2.130096|    2.001496|
|        7974|   -3.026711|    2.155299|    2.015352|
|        7975|   -3.028126|    2.175338|    2.025847|
|        7976|   -3.035373|    2.191745|    2.034070|
|        7977|   -3.045059|    2.205414|    2.041184|
|        7978|   -3.056078|    2.217001|    2.048284|
|        7979|   -3.066843|    2.226992|    2.056083|
|        7980|   -3.075563|    2.235654|    2.065303|
|        7981|   -3.081326|    2.242852|    2.076210|
|        7982|   -3.083614|    2.248258|    2.088352|
|        7983|   -3.082600|    2.251689|    2.100813|
|        7984|   -3.079035|    2.253017|    2.112372|
|        7985|   -3.073651|    2.252332|    2.121982|
|        7986|   -3.067721|    2.249755|    2.129132|
|        7987|   -3.063150|    2.245511|    2.134072|
|        7988|   -3.061883|    2.239866|    2.137760|
|        7989|   -3.066097|    2.233539|    2.141540|
|        7990|   -3.075914|    2.227675|    2.146677|
|        7991|   -3.089672|    2.224195|    2.154116|
|        7992|   -3.103241|    2.224711|    2.164026|
|        7993|   -3.111647|    2.229574|    2.175906|
|        7994|   -3.112985|    2.237497|    2.188916|
|        7995|   -3.110000|    2.246613|    2.202249|
|        7996|   -3.107260|    2.255695|    2.215269|
|        7997|   -3.106916|    2.264594|    2.227645|
|        7998|   -3.108701|    2.273957|    2.239405|
|        7999|   -3.110892|    2.284637|    2.250889|
|        8000|   -3.110902|    2.297318|    2.262462|
|        8001|   -3.106492|    2.312497|    2.274412|
|        8002|   -3.096566|    2.330255|    2.286898|
|        8003|   -3.080919|    2.350163|    2.299768|
|        8004|   -3.059966|    2.371521|    2.312602|
|        8005|   -3.034244|    2.393301|    2.324905|
|        8006|   -3.003551|    2.415027|    2.336188|
|        8007|   -2.969189|    2.436313|    2.346319|
|        8008|   -2.931878|    2.456151|    2.355394|
|        8009|   -2.895688|    2.474269|    2.363844|
|        8010|   -2.866758|    2.489484|    2.371974|
|        8011|   -2.845031|    2.499861|    2.379523|
|        8012|   -2.830638|    2.503867|    2.386316|
|        8013|   -2.826364|    2.499843|    2.392497|
|        8014|   -2.835942|    2.486830|    2.399293|
|        8015|   -2.864632|    2.468104|    2.409675|
|        8016|   -2.900825|    2.456512|    2.426476|
|        8017|   -2.905704|    2.471583|    2.450825|
|        8018|   -2.857551|    2.507450|    2.481079|
|        8019|   -2.799993|    2.539129|    2.514863|
|        8020|   -2.763851|    2.558533|    2.550009|
|        8021|   -2.749619|    2.573220|    2.582725|
|        8022|   -2.746013|    2.591060|    2.608624|
|        8023|   -2.743942|    2.612437|    2.625701|
|        8024|   -2.738959|    2.634422|    2.634036|
|        8025|   -2.734980|    2.654918|    2.635283|
|        8026|   -2.731806|    2.672942|    2.631583|
|        8027|   -2.729425|    2.687524|    2.625646|
|        8028|   -2.727822|    2.698824|    2.619167|
|        8029|   -2.731531|    2.706867|    2.613082|
|        8030|   -2.738966|    2.710384|    2.607357|
|        8031|   -2.750792|    2.709272|    2.602424|
|        8032|   -2.769334|    2.703573|    2.598586|
|        8033|   -2.798370|    2.695923|    2.597052|
|        8034|   -2.834054|    2.690908|    2.599089|
|        8035|   -2.865085|    2.694460|    2.606702|
|        8036|   -2.875052|    2.709032|    2.621439|
|        8037|   -2.856936|    2.731071|    2.644570|
|        8038|   -2.828295|    2.755588|    2.677381|
|        8039|   -2.802162|    2.783811|    2.718667|
|        8040|   -2.772266|    2.819024|    2.765379|
|        8041|   -2.737856|    2.858087|    2.813168|
|        8042|   -2.704333|    2.896201|    2.858052|
|        8043|   -2.673508|    2.929127|    2.896538|
|        8044|   -2.646899|    2.954368|    2.927116|
|        8045|   -2.628841|    2.971073|    2.949572|
|        8046|   -2.624882|    2.978901|    2.964097|
|        8047|   -2.633097|    2.978210|    2.971385|
|        8048|   -2.653070|    2.970759|    2.972947|
|        8049|   -2.685282|    2.960089|    2.970586|
|        8050|   -2.727307|    2.952178|    2.966597|
|        8051|   -2.761805|    2.952215|    2.963519|
|        8052|   -2.770654|    2.960454|    2.964597|
|        8053|   -2.755964|    2.972874|    2.973212|
|        8054|   -2.730575|    2.990282|    2.992594|
|        8055|   -2.696285|    3.018509|    3.023747|
|        8056|   -2.652694|    3.058110|    3.064020|
|        8057|   -2.606171|    3.102070|    3.108756|
|        8058|   -2.563696|    3.144407|    3.152831|
|        8059|   -2.528562|    3.181788|    3.191534|
|        8060|   -2.499915|    3.211495|    3.222098|
|        8061|   -2.477240|    3.232397|    3.243907|
|        8062|   -2.466119|    3.244004|    3.257090|
|        8063|   -2.467353|    3.247019|    3.262775|
|        8064|   -2.478420|    3.244652|    3.263391|
|        8065|   -2.494380|    3.243576|    3.262116|
|        8066|   -2.504656|    3.251831|    3.262679|
|        8067|   -2.499659|    3.270877|    3.269055|
|        8068|   -2.477977|    3.294494|    3.284528|
|        8069|   -2.451624|    3.318472|    3.311074|
|        8070|   -2.427834|    3.345624|    3.347647|
|        8071|   -2.403559|    3.379959|    3.390447|
|        8072|   -2.376976|    3.419596|    3.434363|
|        8073|   -2.354034|    3.458989|    3.474475|
|        8074|   -2.335553|    3.493853|    3.507564|
|        8075|   -2.321599|    3.522357|    3.532458|
|        8076|   -2.312692|    3.543459|    3.548477|
|        8077|   -2.313053|    3.556860|    3.555583|
|        8078|   -2.323365|    3.561721|    3.554588|
|        8079|   -2.343541|    3.558440|    3.547505|
|        8080|   -2.374610|    3.549321|    3.536568|
|        8081|   -2.414157|    3.539397|    3.524543|
|        8082|   -2.454344|    3.535426|    3.514717|
|        8083|   -2.474787|    3.540933|    3.510817|
|        8084|   -2.465879|    3.552892|    3.517210|
|        8085|   -2.442243|    3.568387|    3.536585|
|        8086|   -2.411311|    3.589609|    3.568416|
|        8087|   -2.377500|    3.616656|    3.608361|
|        8088|   -2.344364|    3.645909|    3.650617|
|        8089|   -2.315685|    3.673385|    3.689875|
|        8090|   -2.294008|    3.695967|    3.722756|
|        8091|   -2.281547|    3.711908|    3.748019|
|        8092|   -2.279849|    3.721219|    3.765482|
|        8093|   -2.288629|    3.725369|    3.775772|
|        8094|   -2.307351|    3.727048|    3.779943|
|        8095|   -2.333290|    3.729346|    3.779297|
|        8096|   -2.359482|    3.734635|    3.775515|
|        8097|   -2.377403|    3.743865|    3.770494|
|        8098|   -2.383562|    3.756499|    3.766022|
|        8099|   -2.379011|    3.771761|    3.763772|
|        8100|   -2.366264|    3.788756|    3.764877|
|        8101|   -2.348686|    3.806242|    3.769698|
|        8102|   -2.330630|    3.822946|    3.777971|
|        8103|   -2.316340|    3.837243|    3.789032|
|        8104|   -2.306150|    3.848644|    3.802228|
|        8105|   -2.301026|    3.856963|    3.816444|
|        8106|   -2.301094|    3.862875|    3.830612|
|        8107|   -2.305112|    3.867563|    3.843998|
|        8108|   -2.311024|    3.872330|    3.856208|
|        8109|   -2.316869|    3.878696|    3.867052|
|        8110|   -2.322090|    3.886949|    3.876265|
|        8111|   -2.323303|    3.897575|    3.884214|
|        8112|   -2.320486|    3.910047|    3.890953|
|        8113|   -2.314853|    3.923547|    3.896384|
|        8114|   -2.307947|    3.937223|    3.900293|
|        8115|   -2.301139|    3.950241|    3.902592|
|        8116|   -2.295032|    3.962049|    3.903593|
|        8117|   -2.291367|    3.972447|    3.903825|
|        8118|   -2.291596|    3.981003|    3.903751|
|        8119|   -2.293242|    3.988393|    3.904029|
|        8120|   -2.295060|    3.995065|    3.905076|
|        8121|   -2.295749|    4.001435|    3.907296|
|        8122|   -2.294419|    4.008055|    3.911009|
|        8123|   -2.290674|    4.015314|    3.916284|
|        8124|   -2.284425|    4.023355|    3.923045|
|        8125|   -2.276389|    4.032748|    3.930897|
|        8126|   -2.270144|    4.042395|    3.938983|
|        8127|   -2.264138|    4.052670|    3.946998|
|        8128|   -2.258826|    4.063284|    3.954387|
|        8129|   -2.253765|    4.073958|    3.961166|
|        8130|   -2.249413|    4.084554|    3.967132|
|        8131|   -2.245432|    4.094930|    3.972386|
|        8132|   -2.241726|    4.105040|    3.977044|
|        8133|   -2.237715|    4.114996|    3.981624|
|        8134|   -2.234325|    4.124959|    3.986455|
|        8135|   -2.232728|    4.134365|    3.991750|
|        8136|   -2.231062|    4.143743|    3.998214|
|        8137|   -2.228738|    4.153088|    4.005945|
|        8138|   -2.225233|    4.162424|    4.014880|
|        8139|   -2.220542|    4.171804|    4.024626|
|        8140|   -2.214509|    4.181251|    4.034886|
|        8141|   -2.207305|    4.190684|    4.045358|
|        8142|   -2.199113|    4.200110|    4.055827|
|        8143|   -2.190615|    4.210105|    4.066349|
|        8144|   -2.183421|    4.219612|    4.076056|
|        8145|   -2.179049|    4.229277|    4.085597|
|        8146|   -2.175893|    4.239046|    4.094860|
|        8147|   -2.172193|    4.248841|    4.104270|
|        8148|   -2.167452|    4.258698|    4.113810|
|        8149|   -2.161441|    4.268677|    4.123581|
|        8150|   -2.154377|    4.278800|    4.133541|
|        8151|   -2.146330|    4.288983|    4.143588|
|        8152|   -2.137621|    4.299269|    4.153647|
|        8153|   -2.128997|    4.309764|    4.163618|
|        8154|   -2.119935|    4.319718|    4.173014|
|        8155|   -2.111771|    4.329446|    4.182275|
|        8156|   -2.110919|    4.338833|    4.191387|
|        8157|   -2.109682|    4.347826|    4.200540|
|        8158|   -2.107208|    4.356645|    4.209799|
|        8159|   -2.102989|    4.365418|    4.219204|
|        8160|   -2.097293|    4.374239|    4.228715|
|        8161|   -2.090512|    4.383181|    4.238277|
|        8162|   -2.082817|    4.392241|    4.247786|
|        8163|   -2.075015|    4.401805|    4.257300|
|        8164|   -2.066338|    4.410735|    4.266102|
|        8165|   -2.056906|    4.419271|    4.274763|
|        8166|   -2.048295|    4.427237|    4.283149|
|        8167|   -2.043742|    4.434413|    4.291475|
|        8168|   -2.048963|    4.440871|    4.299661|
|        8169|   -2.051226|    4.446857|    4.307756|
|        8170|   -2.051065|    4.452913|    4.315891|
|        8171|   -2.048167|    4.459343|    4.324114|
|        8172|   -2.042082|    4.466363|    4.332455|
|        8173|   -2.032955|    4.474147|    4.340874|
|        8174|   -2.022082|    4.482791|    4.349387|
|        8175|   -2.010918|    4.491347|    4.357709|
|        8176|   -2.000218|    4.499848|    4.366129|
|        8177|   -1.991037|    4.507997|    4.374589|
|        8178|   -1.983724|    4.515507|    4.383157|
|        8179|   -1.978456|    4.522368|    4.391770|
|        8180|   -1.978769|    4.528718|    4.400462|
|        8181|   -1.980717|    4.534853|    4.409137|
|        8182|   -1.978078|    4.541237|    4.417977|
|        8183|   -1.971251|    4.548297|    4.427071|
|        8184|   -1.960575|    4.556166|    4.436489|
|        8185|   -1.947411|    4.565040|    4.446144|
|        8186|   -1.933235|    4.573993|    4.455972|
|        8187|   -1.919986|    4.583173|    4.466008|
|        8188|   -1.908357|    4.592309|    4.476142|
|        8189|   -1.898042|    4.601118|    4.486353|
|        8190|   -1.889034|    4.609582|    4.496560|
|        8191|   -1.880675|    4.617765|    4.506744|
|        8192|   -1.872941|    4.625762|    4.516895|
|        8193|   -1.866073|    4.633796|    4.527006|
|        8194|   -1.857063|    4.642069|    4.537173|
|        8195|   -1.846255|    4.650798|    4.547474|
|        8196|   -1.834151|    4.660164|    4.557982|
|        8197|   -1.821454|    4.669934|    4.568721|
|        8198|   -1.809611|    4.679865|    4.579752|
|        8199|   -1.798557|    4.690229|    4.591193|
|        8200|   -1.787420|    4.701110|    4.603090|
|        8201|   -1.776459|    4.712375|    4.615385|
|        8202|   -1.765623|    4.724054|    4.627967|
|        8203|   -1.754624|    4.736121|    4.640733|
|        8204|   -1.743239|    4.748478|    4.653539|
|        8205|   -1.731405|    4.761034|    4.666226|
|        8206|   -1.719191|    4.773652|    4.678621|
|        8207|   -1.707067|    4.786054|    4.690554|
|        8208|   -1.695390|    4.798011|    4.701876|
|        8209|   -1.684444|    4.809541|    4.712577|
|        8210|   -1.675267|    4.820090|    4.722332|
|        8211|   -1.667315|    4.829990|    4.731566|
|        8212|   -1.659644|    4.839453|    4.740293|
|        8213|   -1.652046|    4.848547|    4.748711|
|        8214|   -1.644162|    4.857315|    4.756821|
|        8215|   -1.635981|    4.865824|    4.764640|
|        8216|   -1.627387|    4.874068|    4.772211|
|        8217|   -1.618262|    4.882095|    4.779555|
|        8218|   -1.609209|    4.890026|    4.786652|
|        8219|   -1.601028|    4.897703|    4.793421|
|        8220|   -1.593592|    4.905157|    4.799950|
|        8221|   -1.586606|    4.912567|    4.806360|
|        8222|   -1.579869|    4.920277|    4.812794|
|        8223|   -1.573553|    4.928142|    4.819255|
|        8224|   -1.566877|    4.936624|    4.826176|
|        8225|   -1.559296|    4.945896|    4.833673|
|        8226|   -1.550649|    4.955960|    4.841914|
|        8227|   -1.540899|    4.966789|    4.850858|
|        8228|   -1.530203|    4.978289|    4.860344|
|        8229|   -1.518650|    4.990213|    4.870297|
|        8230|   -1.506602|    5.002219|    4.880850|
|        8231|   -1.495329|    5.014018|    4.891984|
|        8232|   -1.485451|    5.025471|    4.903421|
|        8233|   -1.476246|    5.036892|    4.914833|
|        8234|   -1.467269|    5.048353|    4.925845|
|        8235|   -1.458229|    5.059657|    4.936074|
|        8236|   -1.449431|    5.070202|    4.944922|
|        8237|   -1.440427|    5.079861|    4.952661|
|        8238|   -1.430613|    5.088785|    4.959621|
|        8239|   -1.419728|    5.097185|    4.966109|
|        8240|   -1.407450|    5.105245|    4.972467|
|        8241|   -1.393664|    5.113152|    4.978824|
|        8242|   -1.378585|    5.120962|    4.985322|
|        8243|   -1.363037|    5.128529|    4.992026|
|        8244|   -1.348714|    5.135694|    4.998903|
|        8245|   -1.336844|    5.142247|    5.005803|
|        8246|   -1.326777|    5.148950|    5.012923|
|        8247|   -1.317846|    5.156390|    5.020365|
|        8248|   -1.309243|    5.164811|    5.028147|
|        8249|   -1.299940|    5.174387|    5.036304|
|        8250|   -1.288627|    5.184693|    5.044768|
|        8251|   -1.273731|    5.195950|    5.053846|
|        8252|   -1.254888|    5.207954|    5.063619|
|        8253|   -1.232833|    5.220312|    5.074177|
|        8254|   -1.209275|    5.232670|    5.085347|
|        8255|   -1.186541|    5.244647|    5.096909|
|        8256|   -1.166997|    5.255877|    5.108665|
|        8257|   -1.152527|    5.266191|    5.120455|
|        8258|   -1.143485|    5.275808|    5.132007|
|        8259|   -1.137360|    5.285547|    5.143168|
|        8260|   -1.129151|    5.296493|    5.154258|
|        8261|   -1.114168|    5.308817|    5.165705|
|        8262|   -1.090738|    5.322150|    5.178003|
|        8263|   -1.061193|    5.335807|    5.191280|
|        8264|   -1.030067|    5.348975|    5.205248|
|        8265|   -1.002589|    5.361008|    5.219110|
|        8266|   -0.982467|    5.371233|    5.231646|
|        8267|   -0.969911|    5.379568|    5.241876|
|        8268|   -0.959995|    5.386579|    5.249930|
|        8269|   -0.943368|    5.393219|    5.257530|
|        8270|   -0.912565|    5.400284|    5.267531|
|        8271|   -0.869435|    5.408022|    5.282488|
|        8272|   -0.824501|    5.416022|    5.302645|
|        8273|   -0.791330|    5.422677|    5.324092|
|        8274|   -0.776498|    5.426226|    5.340386|
|        8275|   -0.772952|    5.426052|    5.347325|
|        8276|   -0.754897|    5.423351|    5.348020|
|        8277|   -0.689884|    5.422357|    5.356012|
|        8278|   -0.567391|    5.435867|    5.398241|
|        8279|   -0.409790|    5.498563|    5.506777|
|        8280|   -0.308318|    5.614019|    5.589984|
|        8281|   -0.392152|    5.768654|    5.949023|
|        8282|   -0.082000|    6.109166|    5.885622|
|        8283|   -0.078055|    5.997216|    6.131192|
|        8284|   -0.107172|    6.426036|    6.446279|
|        8285|    0.073059|    6.043160|    6.591801|
|        8286|    0.140185|    6.099928|    6.654816|
|        8287|    0.242702|    6.251587|    6.767784|
|        8288|    0.732910|    6.500502|    6.910596|
|        8289|    0.844385|    6.631408|    7.140857|
|        8290|    0.885353|    6.345912|    7.104281|
|        8291|    0.823255|    6.382104|    7.110424|
|        8292|    1.028731|    6.552873|    7.060646|
|        8293|    1.335657|    6.721562|    7.193200|
|        8294|    1.634445|    7.079714|    7.498347|
|        8295|    1.736226|    7.076998|    7.602128|
|        8296|    1.746855|    7.390514|    7.648207|
|        8297|    2.197324|    7.600755|    8.105234|
|        8298|    2.359791|    7.784654|    8.191329|
|        8299|    2.418442|    7.839014|    8.341606|
|        8300|    2.606461|    7.968812|    8.554932|
|        8301|    2.602566|    8.246789|    8.693236|
|        8302|    3.060632|    8.792392|    9.201884|
|        8303|    4.764094|    9.986425|   10.848420|
|        8304|    4.781916|    9.990630|   10.924398|
|        8305|    4.797987|   10.006146|   10.877396|
|        8306|    4.816122|   10.008399|   11.060481|
|        8307|    4.825844|   10.015148|   11.054098|
|        8308|    4.836335|   10.019230|   11.065341|
|        8309|    4.848046|   10.037593|   10.977101|
|        8310|    4.864879|   10.055606|   10.996605|
|        8311|    4.880655|   10.082691|   11.054844|
|        8312|    4.887886|   10.095588|   11.159761|
|        8313|    4.895988|   10.467269|   11.654578|
|        8314|    4.897343|   10.564741|   11.753579|
|        8315|    4.898358|   10.576984|   11.760688|
|        8316|    4.902951|   10.340441|   11.524354|
|        8317|    4.905657|   10.208109|   11.351938|
|        8318|    4.910239|   10.336215|   11.546069|
|        8319|    4.915859|   10.363578|   11.534871|
|        8320|    4.917837|   10.467320|   11.536959|
|        8321|    4.919315|   10.407876|   11.538974|
|        8322|    4.921615|   10.450416|   11.541236|
|        8323|    4.964793|   10.968472|   11.303945|
|        8324|    4.991809|   11.069497|   11.318135|
|        8325|    5.051238|   11.027733|   11.198731|
|        8326|    5.138576|   12.115664|   12.121486|
|        8327|    5.138998|   12.109168|   12.112916|
|        8328|    5.140164|   12.112143|   12.110909|
|        8329|    5.141379|   12.115679|   12.110662|
|        8330|    5.151291|   12.118373|   12.115288|
|        8331|    5.152604|   11.933989|   11.933249|
|        8332|    5.155245|   12.309044|   12.299031|
|        8333|    5.155856|   12.309631|   12.299480|
|        8334|    5.156639|   12.312418|   12.300461|
|        8335|    5.157596|   12.316681|   12.303828|
|        8336|    5.158611|   12.322343|   12.309261|
|        8337|    5.160244|   12.388234|   12.380200|


Error in "void CSolver::SetResidual_RMS(const CGeometry*, const CConfig*)": 
-------------------------------------------------------------------------
SU2 has diverged (Residual > 10^20 detected).
------------------------------ Error Exit -------------------------------


