scsub> Executing:  'cd /home/hem1dev/Codes/SU2_Github_Mark_Test/SU2/Venturi'


WARNING: CONV_CRITERIA is deprecated. SU2 will choose the criteria automatically based on the CONV_FIELD.
That is, RESIDUAL for any RMS_* BGS_* value, and CAUCHY for coefficients such as DRAG etc.


-------------------------------------------------------------------------
|    ___ _   _ ___                                                      |
|   / __| | | |_  )   Release 7.1.1 "Blackbird"                         |
|   \__ \ |_| |/ /                                                      |
|   |___/\___//___|   Suite (Computational Fluid Dynamics Code)         |
|                                                                       |
-------------------------------------------------------------------------
| SU2 Project Website: https://su2code.github.io                        |
|                                                                       |
| The SU2 Project is maintained by the SU2 Foundation                   |
| (http://su2foundation.org)                                            |
-------------------------------------------------------------------------
| Copyright 2012-2021, SU2 Contributors                                 |
|                                                                       |
| SU2 is free software; you can redistribute it and/or                  |
| modify it under the terms of the GNU Lesser General Public            |
| License as published by the Free Software Foundation; either          |
| version 2.1 of the License, or (at your option) any later version.    |
|                                                                       |
| SU2 is distributed in the hope that it will be useful,                |
| but WITHOUT ANY WARRANTY; without even the implied warranty of        |
| MERCHANTABILITY or FITNESS FOR A PARTICULAR PURPOSE. See the GNU      |
| Lesser General Public License for more details.                       |
|                                                                       |
| You should have received a copy of the GNU Lesser General Public      |
| License along with SU2. If not, see <http://www.gnu.org/licenses/>.   |
-------------------------------------------------------------------------


WARNING: CONV_CRITERIA is deprecated. SU2 will choose the criteria automatically based on the CONV_FIELD.
That is, RESIDUAL for any RMS_* BGS_* value, and CAUCHY for coefficients such as DRAG etc.


Parsing config file for zone 0


WARNING: CONV_CRITERIA is deprecated. SU2 will choose the criteria automatically based on the CONV_FIELD.
That is, RESIDUAL for any RMS_* BGS_* value, and CAUCHY for coefficients such as DRAG etc.


----------------- Physical Case Definition ( Zone 0 ) -------------------
Incompressible RANS equations.
Turbulence model: Menter's SST
Hybrid RANS/LES: No Hybrid RANS/LES
No restart solution, use the values at infinity (freestream).
Dimensional simulation.
The reference area is 1 m^2.
The semi-span will be computed using the max y(3D) value.
The reference length is 1 m.
Input mesh file name: c6_cms_venturi.cgns

--------------- Space Numerical Integration ( Zone 0 ) ------------------
Flux difference splitting (FDS) upwind scheme for the flow inviscid terms.
Second order integration in space, with slope limiter.
No slope-limiting method. 
Average of gradients with correction (viscous flow terms).
Average of gradients with correction (viscous turbulence terms).
Gradient for upwind reconstruction: inverse-distance weighted Least-Squares.
Gradient for viscous and source terms: inverse-distance weighted Least-Squares.

--------------- Time Numerical Integration  ( Zone 0 ) ------------------
Local time stepping (steady state simulation).
Euler implicit method for the flow equations.
FGMRES is used for solving the linear system.
Using a ILU(0) preconditioning.
Convergence criteria of the linear solver: 1e-08.
Max number of linear iterations: 20.
No CFL adaptation.
Courant-Friedrichs-Lewy number:      100
Euler implicit time integration for the turbulence model.

------------------ Convergence Criteria  ( Zone 0 ) ---------------------
Maximum number of solver subiterations: 10000.
Begin convergence monitoring at iteration 10.
Residual minimum value: 1e-10.
Cauchy series min. value: 1e-06.
Number of Cauchy elements: 100.
Begin windowed time average at iteration 0.

-------------------- Output Information ( Zone 0 ) ----------------------
Writing solution files every 500 iterations.
Writing the convergence history file every 1 inner iterations.
Writing the screen convergence history every 1 inner iterations.
The tabular file format is CSV (.csv).
Convergence history file name: history_test.
Forces breakdown file name: forces_breakdown.dat.
Surface file name: surface_flow_venturi_mixturedensity_30kW_fine_test.
Volume file name: flow_venturi_mixturedensity_30kW_fine_test.
Restart file name: restart_venturi_mixturedensity_30kW_fine_test.dat.

------------- Config File Boundary Information ( Zone 0 ) ---------------
+-----------------------------------------------------------------------+
|                        Marker Type|                        Marker Name|
+-----------------------------------------------------------------------+
|                     Symmetry plane|                               axis|
+-----------------------------------------------------------------------+
|                     Inlet boundary|                          gas_inlet|
|                                   |                          air_inlet|
+-----------------------------------------------------------------------+
|                    Outlet boundary|                             outlet|
+-----------------------------------------------------------------------+
|                     Heat flux wall|            wall-component1-surface|
+-----------------------------------------------------------------------+

-------------------- Output Preprocessing ( Zone 0 ) --------------------
Screen output fields: INNER_ITER, RMS_PRESSURE, RMS_VELOCITY-X, RMS_VELOCITY-Y, RMS_PASSIVE_SCALAR
History output group(s): RMS_RES, AERO_COEFF, FLOW_COEFF
Convergence field(s): RMS_PRESSURE, RMS_VELOCITY-X, RMS_VELOCITY-Y, RMS_TKE
Warning: No (valid) fields chosen for time convergence monitoring. Time convergence monitoring inactive.
  Info: Ignoring the following volume output fields/groups:
  SOURCE, LOOKUP
Volume output fields: DENSITY, SOLUTION, PRIMITIVE, RESIDUAL, COORDINATES

------------------- Geometry Preprocessing ( Zone 0 ) -------------------
Reading the CGNS file: c6_cms_venturi.cgns.
CGNS file contains 1 database(s).
Database 1, Base:  cell dimension of 2, physical dimension of 2.
1 total zone(s).
Zone 1, Zone: 292948 total vertices, 295883 total elements.
Loading CoordinateX values into linear partitions.
Loading CoordinateY values into linear partitions.
Distributing connectivity across all ranks.
Number of connectivity sections is 6.
Section gas_inlet contains 51 elements of type Mixed.
Section air_inlet contains 150 elements of type Mixed.
Section outlet contains 157 elements of type Mixed.
Section axis contains 1721 elements of type Mixed.
Section component1-surface contains 290183 elements of type Mixed.
Section wall-component1-surface contains 3621 elements of type Mixed.
Loading surface section gas_inlet from file.
Loading surface section air_inlet from file.
Loading surface section outlet from file.
Loading surface section axis from file.
Loading volume section component1-surface from file.
Loading surface section wall-component1-surface from file.
Two dimensional problem.
292948 grid points before partitioning.
290183 volume elements before partitioning.
5 surface markers.
51 boundary elements in index 0 (Marker = gas_inlet).
150 boundary elements in index 1 (Marker = air_inlet).
157 boundary elements in index 2 (Marker = outlet).
1721 boundary elements in index 3 (Marker = axis).
3621 boundary elements in index 4 (Marker = wall-component1-surface).
Executing the partitioning functions.
Building the graph adjacency structure.
Calling ParMETIS... graph partitioning complete (8746 edge cuts).
Distributing ParMETIS coloring.
Rebalancing vertices.
Rebalancing volume element connectivity.
Rebalancing markers and surface elements.
310564 vertices including ghost points. 
298925 interior elements including halo cells. 
176 triangles.
298749 quadrilaterals.
Establishing MPI communication patterns.
Setting point connectivity.
Renumbering points (Reverse Cuthill McKee Ordering).
Recomputing point connectivity.
Setting element connectivity.
Checking the numerical grid orientation.
All volume elements are correctly orientend.
All surface elements are correctly orientend.
Identifying edges and vertices.
Setting the control volume structure.
Area of the computational grid: 0.00281152.
Searching for the closest normal neighbors to the surfaces.
Storing a mapping from global to local point index.
Compute the surface curvature.
Max K: 25766.3. Mean K: 66.0693. Standard deviation K: 1007.76.
Checking for periodicity.
Computing mesh quality statistics for the dual control volumes.
+--------------------------------------------------------------+
|           Mesh Quality Metric|        Minimum|        Maximum|
+--------------------------------------------------------------+
|    Orthogonality Angle (deg.)|        45.2115|             90|
|     CV Face Area Aspect Ratio|              1|        10.3208|
|           CV Sub-Volume Ratio|              1|        9.85984|
+--------------------------------------------------------------+
Finding max control volume width.
Communicating number of neighbors.
Wetted area = 0 m.
Area projection in the x-plane = 0 m, y-plane = 0 m.
Max. coordinate in the x-direction = -1e+10 m, y-direction = -1e+10 m.
Min. coordinate in the x-direction = 1e+10 m, y-direction = 1e+10 m.
Checking if Euler & Symmetry markers are straight/plane:
Boundary marker axis is a single straight.
Computing wall distances.

-------------------- Solver Preprocessing ( Zone 0 ) --------------------
Incompressible flow: rho_ref, vel_ref, temp_ref, p_ref
are set to 1.0 in order to perform a dimensional calculation.
Force coefficients computed using initial values.
The reference area for force coeffs. is 1 m^2.
The reference length for force coeffs. is 1 m.
The pressure is decomposed into thermodynamic and dynamic components.
The initial value of the dynamic pressure is 0.
Mach number: 0, computed using fluid speed of sound.
For external flows, the initial state is imposed at the far-field.
Angle of attack (deg): 0, computed using the initial velocity.
Side slip angle (deg): 0, computed using the initial velocity.
Reynolds number per meter: 65290.8, computed using initial values.
Reynolds number is a byproduct of inputs only (not used internally).
SI units only. The grid should be dimensional (meters).
Energy equation is active and coupled for variable density.

-- Models:
+------------------------------------------------------------------------------+
|          Viscosity Model|        Conductivity Model|              Fluid Model|
+------------------------------------------------------------------------------+
|       CONSTANT_VISCOSITY|                  CONSTANT|+------------------------------------------------------------------------------+
-- Fluid properties:
+------------------------------------------------------------------------------+
|                  Name|    Dim. value|    Ref. value|      Unit|Non-dim. value|
+------------------------------------------------------------------------------+
|             Viscosity|     1.118e-05|             1|   N.s/m^2|     1.118e-05|
+------------------------------------------------------------------------------+
|       Molecular Cond.|         0.072|             1|   W/m^2.K|         0.072|
+------------------------------------------------------------------------------+
-- Initial and free-stream conditions:
+------------------------------------------------------------------------------+
|                  Name|    Dim. value|    Ref. value|      Unit|Non-dim. value|
+------------------------------------------------------------------------------+
|      Dynamic Pressure|             0|             1|        Pa|             0|
|        Total Pressure|      0.585985|             1|        Pa|      0.585985|
|               Density|       1.17197|             1|    kg/m^3|       1.17197|
|           Temperature|           300|             1|         K|           300|
|            Velocity-X|             1|             1|       m/s|             1|
|            Velocity-Y|             0|             1|       m/s|             0|
|    Velocity Magnitude|             1|             1|       m/s|             1|
+------------------------------------------------------------------------------+
|             Viscosity|     1.795e-05|             1|   N.s/m^2|     1.795e-05|
|          Conductivity|             -|             1|   W/m^2.K|             -|
|     Turb. Kin. Energy|       0.00375|             1|   m^2/s^2|       0.00375|
|     Spec. Dissipation|       24.4841|             1|       1/s|       24.4841|
+------------------------------------------------------------------------------+
|           Mach Number|             -|             -|         -|             0|
|       Reynolds Number|             -|             -|         -|       65290.8|
+------------------------------------------------------------------------------+
Initialize Jacobian structure (Navier-Stokes). MG level: 0.
Initialize Jacobian structure (passive scalar model).
Initialize Jacobian structure (SST model).

------------------- Numerics Preprocessing ( Zone 0 ) -------------------

----------------- Integration Preprocessing ( Zone 0 ) ------------------

------------------- Iteration Preprocessing ( Zone 0 ) ------------------
Euler/Navier-Stokes/RANS fluid iteration.

------------------------------ Begin Solver -----------------------------

Simulation Run using the Single-zone Driver
Initializing passive scalar (initial condition).
initialization = 1 1
+----------------------------------------------------------------+
|  Inner_Iter|      rms[P]|      rms[U]|      rms[V]|      rms[c]|
+----------------------------------------------------------------+
|           0|   -5.116953|   -4.847332|   -4.364756|   -5.710014|
|           1|   -4.986664|   -4.844342|   -4.071097|   -5.228501|
|           2|   -5.397912|   -4.543874|   -4.030100|   -5.335502|
|           3|   -5.504254|   -4.736086|   -4.076735|   -5.471068|
|           4|   -5.655709|   -4.832053|   -4.095553|   -5.522869|
|           5|   -5.628521|   -4.890813|   -4.330221|   -5.548290|
|           6|   -5.728511|   -4.859052|   -4.567050|   -5.577568|
|           7|   -5.768854|   -4.803265|   -4.706550|   -5.628017|
|           8|   -5.800315|   -4.764661|   -4.691484|   -5.690207|
|           9|   -5.808394|   -4.744324|   -4.588951|   -5.741743|
|          10|   -5.782138|   -4.732260|   -4.425757|   -5.767585|
|          11|   -5.754005|   -4.720710|   -4.321395|   -5.770184|
|          12|   -5.755093|   -4.708718|   -4.284457|   -5.758293|
|          13|   -5.783110|   -4.695917|   -4.288741|   -5.741342|
|          14|   -5.821328|   -4.680058|   -4.315588|   -5.726166|
|          15|   -5.857393|   -4.659061|   -4.350718|   -5.715805|
|          16|   -5.886796|   -4.633480|   -4.380310|   -5.710125|
|          17|   -5.908629|   -4.606013|   -4.394133|   -5.707452|
|          18|   -5.923202|   -4.579339|   -4.389964|   -5.705834|
|          19|   -5.932291|   -4.554864|   -4.373604|   -5.703807|
|          20|   -5.938880|   -4.532817|   -4.353508|   -5.700620|
|          21|   -5.945814|   -4.512848|   -4.336147|   -5.696153|
|          22|   -5.954637|   -4.494528|   -4.324538|   -5.690673|
|          23|   -5.965414|   -4.477528|   -4.318531|   -5.684602|
|          24|   -5.977309|   -4.461622|   -4.316718|   -5.678348|
|          25|   -5.989324|   -4.446632|   -4.316917|   -5.672198|
|          26|   -6.000763|   -4.432395|   -4.316673|   -5.666282|
|          27|   -6.011318|   -4.418769|   -4.315413|   -5.660596|
|          28|   -6.020977|   -4.405680|   -4.313394|   -5.655098|
|          29|   -6.029870|   -4.393074|   -4.310928|   -5.649732|
|          30|   -6.038180|   -4.380902|   -4.308495|   -5.644458|
|          31|   -6.046047|   -4.369089|   -4.306462|   -5.639260|
|          32|   -6.053555|   -4.357558|   -4.304999|   -5.634137|
|          33|   -6.060689|   -4.346237|   -4.304037|   -5.629073|
|          34|   -6.067396|   -4.335097|   -4.303270|   -5.624061|
|          35|   -6.073642|   -4.324161|   -4.302404|   -5.619114|
|          36|   -6.079407|   -4.313479|   -4.301045|   -5.614278|
|          37|   -6.084707|   -4.303064|   -4.298119|   -5.609609|
|          38|   -6.089632|   -4.292899|   -4.292725|   -5.605158|
|          39|   -6.094319|   -4.283011|   -4.286989|   -5.600952|
|          40|   -6.098704|   -4.273408|   -4.281679|   -5.596975|
|          41|   -6.102689|   -4.264061|   -4.277201|   -5.593168|
|          42|   -6.106283|   -4.254896|   -4.273872|   -5.589502|
|          43|   -6.109584|   -4.245724|   -4.270779|   -5.585981|
|          44|   -6.112718|   -4.236413|   -4.268688|   -5.582696|
|          45|   -6.115584|   -4.226939|   -4.266979|   -5.579709|
|          46|   -6.118175|   -4.217535|   -4.266663|   -5.576995|
|          47|   -6.120399|   -4.208627|   -4.267574|   -5.574489|
|          48|   -6.122272|   -4.200590|   -4.268405|   -5.572099|
|          49|   -6.124019|   -4.193741|   -4.269424|   -5.569777|
|          50|   -6.125687|   -4.188272|   -4.271068|   -5.567481|
|          51|   -6.127131|   -4.184180|   -4.273238|   -5.565244|
|          52|   -6.128418|   -4.181309|   -4.275967|   -5.563121|
|          53|   -6.129531|   -4.179414|   -4.279343|   -5.561192|
|          54|   -6.130434|   -4.178239|   -4.283362|   -5.559454|
|          55|   -6.131032|   -4.177614|   -4.287829|   -5.557804|
|          56|   -6.131229|   -4.177459|   -4.292399|   -5.556025|
|          57|   -6.131047|   -4.177725|   -4.296700|   -5.553856|
|          58|   -6.130604|   -4.178332|   -4.300350|   -5.551081|
|          59|   -6.129624|   -4.179081|   -4.302960|   -5.547607|
|          60|   -6.127627|   -4.179627|   -4.304024|   -5.543457|
|          61|   -6.124318|   -4.179495|   -4.303429|   -5.538701|
|          62|   -6.119587|   -4.178224|   -4.301444|   -5.533405|
|          63|   -6.113438|   -4.175529|   -4.298255|   -5.527637|
|          64|   -6.106017|   -4.171382|   -4.293918|   -5.521477|
|          65|   -6.097494|   -4.166019|   -4.288302|   -5.514982|
|          66|   -6.087877|   -4.159839|   -4.281063|   -5.508172|
|          67|   -6.077032|   -4.153236|   -4.271719|   -5.501005|
|          68|   -6.064768|   -4.146491|   -4.259812|   -5.493357|
|          69|   -6.050793|   -4.139582|   -4.244989|   -5.485045|
|          70|   -6.034919|   -4.132282|   -4.227231|   -5.475851|
|          71|   -6.016952|   -4.124431|   -4.206715|   -5.465693|
|          72|   -5.997746|   -4.116398|   -4.183864|   -5.454744|
|          73|   -5.977003|   -4.108184|   -4.159160|   -5.443890|
|          74|   -5.955323|   -4.100089|   -4.134288|   -5.434724|
|          75|   -5.935401|   -4.092257|   -4.112093|   -5.428845|
|          76|   -5.920233|   -4.084438|   -4.095783|   -5.427182|
|          77|   -5.911495|   -4.076389|   -4.087130|   -5.429564|
|          78|   -5.908560|   -4.068600|   -4.087502|   -5.434744|
|          79|   -5.910099|   -4.061934|   -4.094970|   -5.441142|
|          80|   -5.915385|   -4.057165|   -4.104581|   -5.447702|
|          81|   -5.922428|   -4.054129|   -4.114412|   -5.454278|
|          82|   -5.930465|   -4.051952|   -4.124245|   -5.460801|
|          83|   -5.938458|   -4.049408|   -4.134604|   -5.466963|
|          84|   -5.944657|   -4.045776|   -4.144620|   -5.472468|
|          85|   -5.947865|   -4.041327|   -4.153022|   -5.476591|
|          86|   -5.947106|   -4.034923|   -4.159688|   -5.478607|
|          87|   -5.942105|   -4.026537|   -4.164362|   -5.477872|
|          88|   -5.932905|   -4.017441|   -4.164899|   -5.474056|
|          89|   -5.921051|   -4.007532|   -4.157765|   -5.467079|
|          90|   -5.907778|   -3.997036|   -4.140936|   -5.456959|
|          91|   -5.890539|   -3.986893|   -4.115622|   -5.444787|
|          92|   -5.869360|   -3.978183|   -4.086771|   -5.432358|
|          93|   -5.845817|   -3.971439|   -4.059799|   -5.421813|
|          94|   -5.823521|   -3.966765|   -4.038795|   -5.414543|
|          95|   -5.806867|   -3.963869|   -4.025805|   -5.410772|
|          96|   -5.797125|   -3.962270|   -4.020189|   -5.410170|
|          97|   -5.792711|   -3.961321|   -4.019497|   -5.412253|
|          98|   -5.792917|   -3.960440|   -4.021810|   -5.416384|
|          99|   -5.797083|   -3.959772|   -4.026348|   -5.422085|
|         100|   -5.805100|   -3.959469|   -4.032554|   -5.428783|
|         101|   -5.815971|   -3.959709|   -4.040977|   -5.436062|
|         102|   -5.828971|   -3.960891|   -4.051572|   -5.443199|
|         103|   -5.842892|   -3.963662|   -4.063508|   -5.449870|
|         104|   -5.858305|   -3.967785|   -4.075669|   -5.456100|
|         105|   -5.873409|   -3.972949|   -4.087888|   -5.461499|
|         106|   -5.888235|   -3.979146|   -4.100042|   -5.465446|
|         107|   -5.902005|   -3.986243|   -4.110893|   -5.467147|
|         108|   -5.913246|   -3.994263|   -4.118478|   -5.466245|
|         109|   -5.922093|   -4.002567|   -4.121936|   -5.462585|
|         110|   -5.925749|   -4.010734|   -4.122401|   -5.456772|
|         111|   -5.922790|   -4.018225|   -4.121053|   -5.449555|
|         112|   -5.912061|   -4.024686|   -4.118645|   -5.442715|
|         113|   -5.902507|   -4.029507|   -4.115671|   -5.436165|
|         114|   -5.892018|   -4.032053|   -4.113469|   -5.430284|
|         115|   -5.881056|   -4.033248|   -4.112076|   -5.425338|
|         116|   -5.871586|   -4.033875|   -4.112221|   -5.421623|
|         117|   -5.863800|   -4.034466|   -4.114207|   -5.419185|
|         118|   -5.857368|   -4.035598|   -4.117627|   -5.418360|
|         119|   -5.853452|   -4.037829|   -4.122260|   -5.419165|
|         120|   -5.851304|   -4.041303|   -4.127445|   -5.421651|
|         121|   -5.851380|   -4.045820|   -4.132814|   -5.425674|
|         122|   -5.852852|   -4.051377|   -4.137622|   -5.431192|
|         123|   -5.856158|   -4.057763|   -4.140841|   -5.437923|
|         124|   -5.860775|   -4.064856|   -4.142040|   -5.445352|
|         125|   -5.865356|   -4.072445|   -4.141327|   -5.453066|
|         126|   -5.870040|   -4.080187|   -4.138795|   -5.460915|
|         127|   -5.874453|   -4.087624|   -4.135061|   -5.468730|
|         128|   -5.878380|   -4.094571|   -4.130250|   -5.476277|
|         129|   -5.882170|   -4.100797|   -4.124947|   -5.483422|
|         130|   -5.885357|   -4.106329|   -4.118325|   -5.490385|
|         131|   -5.892437|   -4.110398|   -4.111527|   -5.496343|
|         132|   -5.900122|   -4.113946|   -4.105837|   -5.501241|
|         133|   -5.907352|   -4.117141|   -4.101323|   -5.505235|
|         134|   -5.913495|   -4.119882|   -4.098086|   -5.508492|
|         135|   -5.918871|   -4.122404|   -4.096132|   -5.511183|
|         136|   -5.923520|   -4.124696|   -4.095350|   -5.513401|
|         137|   -5.927675|   -4.126769|   -4.095609|   -5.515364|
|         138|   -5.931162|   -4.128564|   -4.096679|   -5.517087|
|         139|   -5.934527|   -4.130015|   -4.098259|   -5.518693|
|         140|   -5.937698|   -4.131203|   -4.100056|   -5.520031|
|         141|   -5.940786|   -4.132281|   -4.101932|   -5.521109|
|         142|   -5.943473|   -4.133264|   -4.103619|   -5.521916|
|         143|   -5.945359|   -4.134123|   -4.105290|   -5.522571|
|         144|   -5.946816|   -4.134946|   -4.107003|   -5.523105|
|         145|   -5.947622|   -4.135578|   -4.108494|   -5.523495|
|         146|   -5.948431|   -4.136457|   -4.109488|   -5.523796|
|         147|   -5.949504|   -4.137644|   -4.110070|   -5.524013|
|         148|   -5.950686|   -4.138878|   -4.110260|   -5.524179|
|         149|   -5.951700|   -4.140221|   -4.110066|   -5.524375|
|         150|   -5.953366|   -4.141672|   -4.109531|   -5.524742|
|         151|   -5.955872|   -4.143397|   -4.108823|   -5.525300|
|         152|   -5.958529|   -4.145458|   -4.108327|   -5.525934|
|         153|   -5.961939|   -4.147690|   -4.108065|   -5.526453|
|         154|   -5.965823|   -4.149854|   -4.107578|   -5.526804|
|         155|   -5.969780|   -4.151922|   -4.106832|   -5.526883|
|         156|   -5.973615|   -4.154112|   -4.106207|   -5.526805|
|         157|   -5.976702|   -4.156369|   -4.105709|   -5.526576|
|         158|   -5.978660|   -4.158506|   -4.105368|   -5.526247|
|         159|   -5.980143|   -4.160345|   -4.105312|   -5.525816|
|         160|   -5.981856|   -4.162174|   -4.105474|   -5.525289|
|         161|   -5.983500|   -4.164132|   -4.105909|   -5.524536|
|         162|   -5.985264|   -4.165882|   -4.106539|   -5.523641|
|         163|   -5.986794|   -4.167414|   -4.107331|   -5.522625|
|         164|   -5.987668|   -4.168655|   -4.108187|   -5.521487|
|         165|   -5.988727|   -4.169658|   -4.108974|   -5.520200|
|         166|   -5.989580|   -4.170399|   -4.109600|   -5.518687|
|         167|   -5.989891|   -4.170664|   -4.109977|   -5.516898|
|         168|   -5.989931|   -4.170573|   -4.110023|   -5.514831|
|         169|   -5.989417|   -4.169886|   -4.109643|   -5.512513|
|         170|   -5.988498|   -4.168513|   -4.108665|   -5.510044|
|         171|   -5.987031|   -4.166282|   -4.106873|   -5.507496|
|         172|   -5.985377|   -4.163402|   -4.104627|   -5.504929|
|         173|   -5.983473|   -4.160094|   -4.102084|   -5.502362|
|         174|   -5.982226|   -4.156479|   -4.099437|   -5.499780|
|         175|   -5.981438|   -4.152955|   -4.096779|   -5.497140|
|         176|   -5.981102|   -4.149330|   -4.094057|   -5.494443|
|         177|   -5.981043|   -4.145276|   -4.091355|   -5.491710|
|         178|   -5.980801|   -4.140760|   -4.088505|   -5.488973|
|         179|   -5.981130|   -4.135883|   -4.085673|   -5.486280|
|         180|   -5.981829|   -4.130541|   -4.082844|   -5.483644|
|         181|   -5.982969|   -4.124937|   -4.079994|   -5.481056|
|         182|   -5.984158|   -4.119365|   -4.077036|   -5.478481|
|         183|   -5.985861|   -4.113900|   -4.073686|   -5.475887|
|         184|   -5.987628|   -4.108332|   -4.069992|   -5.473239|
|         185|   -5.989560|   -4.102785|   -4.065983|   -5.470564|
|         186|   -5.991464|   -4.097616|   -4.061711|   -5.467948|
|         187|   -5.993423|   -4.092809|   -4.057126|   -5.465437|
|         188|   -5.995267|   -4.088130|   -4.052371|   -5.463016|
|         189|   -5.997382|   -4.083742|   -4.047535|   -5.460691|
|         190|   -5.999830|   -4.079933|   -4.042766|   -5.458383|
|         191|   -6.002610|   -4.076632|   -4.038164|   -5.456096|
|         192|   -6.005549|   -4.073796|   -4.033863|   -5.453843|
|         193|   -6.008584|   -4.071312|   -4.029933|   -5.451652|
|         194|   -6.011465|   -4.069034|   -4.026368|   -5.449548|
|         195|   -6.014391|   -4.066953|   -4.023124|   -5.447565|
|         196|   -6.017069|   -4.064958|   -4.020240|   -5.445731|
|         197|   -6.019624|   -4.063111|   -4.017786|   -5.444052|
|         198|   -6.021916|   -4.061482|   -4.015848|   -5.442532|
|         199|   -6.024258|   -4.060032|   -4.014355|   -5.441154|
|         200|   -6.026387|   -4.058684|   -4.013209|   -5.439909|
|         201|   -6.028708|   -4.057461|   -4.012294|   -5.438809|
|         202|   -6.030982|   -4.056421|   -4.011513|   -5.437899|
|         203|   -6.033191|   -4.055495|   -4.010767|   -5.437190|
|         204|   -6.035189|   -4.054517|   -4.010093|   -5.436694|
|         205|   -6.037192|   -4.053536|   -4.009620|   -5.436409|
|         206|   -6.039404|   -4.052747|   -4.009441|   -5.436333|
|         207|   -6.041817|   -4.052122|   -4.009490|   -5.436445|
|         208|   -6.044198|   -4.051638|   -4.009630|   -5.436762|
|         209|   -6.046762|   -4.051333|   -4.009791|   -5.437273|
|         210|   -6.049186|   -4.051068|   -4.009923|   -5.437967|
|         211|   -6.051745|   -4.050766|   -4.009976|   -5.438849|
|         212|   -6.054218|   -4.050331|   -4.010030|   -5.439915|
|         213|   -6.056852|   -4.049748|   -4.010188|   -5.441191|
|         214|   -6.059698|   -4.049025|   -4.010544|   -5.442681|
|         215|   -6.062818|   -4.048144|   -4.011076|   -5.444386|
|         216|   -6.065999|   -4.047114|   -4.011796|   -5.446297|
|         217|   -6.069548|   -4.045990|   -4.012665|   -5.448356|
|         218|   -6.073712|   -4.044751|   -4.013688|   -5.450564|
|         219|   -6.078542|   -4.043441|   -4.014828|   -5.452923|
|         220|   -6.083846|   -4.042118|   -4.016080|   -5.455441|
|         221|   -6.089622|   -4.040722|   -4.017392|   -5.458091|
|         222|   -6.095871|   -4.039105|   -4.018748|   -5.460859|
|         223|   -6.102506|   -4.037269|   -4.020264|   -5.463740|
|         224|   -6.109575|   -4.035317|   -4.022068|   -5.466731|
|         225|   -6.116918|   -4.033373|   -4.024195|   -5.469816|
|         226|   -6.124582|   -4.031406|   -4.026653|   -5.472991|
|         227|   -6.132475|   -4.029413|   -4.029473|   -5.476255|
|         228|   -6.140369|   -4.027355|   -4.032697|   -5.479614|
|         229|   -6.148288|   -4.025275|   -4.036315|   -5.483064|
|         230|   -6.156359|   -4.023198|   -4.040278|   -5.486600|
|         231|   -6.164441|   -4.021160|   -4.044567|   -5.490224|
|         232|   -6.172617|   -4.019217|   -4.049109|   -5.493926|
|         233|   -6.180782|   -4.017295|   -4.053943|   -5.497714|
|         234|   -6.188990|   -4.015421|   -4.059018|   -5.501577|
|         235|   -6.197833|   -4.013632|   -4.064335|   -5.505525|
|         236|   -6.206816|   -4.011995|   -4.069852|   -5.509523|
|         237|   -6.215978|   -4.010509|   -4.075509|   -5.513567|
|         238|   -6.225769|   -4.009222|   -4.081290|   -5.517667|
|         239|   -6.235822|   -4.008121|   -4.087143|   -5.521802|
|         240|   -6.245838|   -4.007124|   -4.092952|   -5.525956|
|         241|   -6.255996|   -4.006215|   -4.098677|   -5.530150|
|         242|   -6.266149|   -4.005375|   -4.104299|   -5.534373|
|         243|   -6.276100|   -4.004558|   -4.109730|   -5.538604|
|         244|   -6.285324|   -4.003720|   -4.114967|   -5.542857|
|         245|   -6.294111|   -4.002890|   -4.119910|   -5.547115|
|         246|   -6.302293|   -4.002068|   -4.124547|   -5.551368|
|         247|   -6.309468|   -4.001254|   -4.128853|   -5.555607|
|         248|   -6.315694|   -4.000434|   -4.132784|   -5.559831|
|         249|   -6.320921|   -3.999584|   -4.136194|   -5.564043|
|         250|   -6.325554|   -3.998709|   -4.139066|   -5.568227|
|         251|   -6.329608|   -3.997819|   -4.141570|   -5.572381|
|         252|   -6.332985|   -3.996915|   -4.143732|   -5.576510|
|         253|   -6.335866|   -3.995969|   -4.145594|   -5.580634|
|         254|   -6.338415|   -3.994930|   -4.147138|   -5.584741|
|         255|   -6.340614|   -3.993877|   -4.148420|   -5.588847|
|         256|   -6.343384|   -3.992754|   -4.149560|   -5.592966|
|         257|   -6.345867|   -3.991659|   -4.150627|   -5.597045|
|         258|   -6.348984|   -3.990470|   -4.151709|   -5.601148|
|         259|   -6.351997|   -3.989288|   -4.152838|   -5.605199|
|         260|   -6.355720|   -3.988084|   -4.154138|   -5.609239|
|         261|   -6.359428|   -3.986856|   -4.155689|   -5.613219|
|         262|   -6.363439|   -3.985590|   -4.157478|   -5.617153|
|         263|   -6.367269|   -3.984207|   -4.159495|   -5.621024|
|         264|   -6.371008|   -3.982736|   -4.161634|   -5.624822|
|         265|   -6.373956|   -3.981115|   -4.163824|   -5.628539|
|         266|   -6.376773|   -3.979400|   -4.165906|   -5.632177|
|         267|   -6.378419|   -3.977628|   -4.167763|   -5.635690|
|         268|   -6.379742|   -3.975874|   -4.169297|   -5.639128|
|         269|   -6.379893|   -3.974236|   -4.170409|   -5.642407|
|         270|   -6.379421|   -3.972695|   -4.171026|   -5.645612|
|         271|   -6.378202|   -3.971354|   -4.170958|   -5.648663|
|         272|   -6.376549|   -3.970126|   -4.170435|   -5.651625|
|         273|   -6.374110|   -3.969124|   -4.169451|   -5.654437|
|         274|   -6.371562|   -3.968229|   -4.168182|   -5.657182|
|         275|   -6.368427|   -3.967455|   -4.166640|   -5.659809|
|         276|   -6.365488|   -3.966801|   -4.164832|   -5.662438|
|         277|   -6.363285|   -3.966359|   -4.162937|   -5.665015|
|         278|   -6.361683|   -3.966257|   -4.160939|   -5.667586|
|         279|   -6.360667|   -3.966447|   -4.159073|   -5.670154|
|         280|   -6.361051|   -3.966967|   -4.157414|   -5.672771|
|         281|   -6.361726|   -3.967771|   -4.156150|   -5.675347|
|         282|   -6.363590|   -3.968778|   -4.155402|   -5.678012|
|         283|   -6.365480|   -3.970005|   -4.155245|   -5.680678|
|         284|   -6.367503|   -3.971404|   -4.155789|   -5.683415|
|         285|   -6.369740|   -3.972994|   -4.157029|   -5.686259|
|         286|   -6.371540|   -3.974720|   -4.158952|   -5.689162|
|         287|   -6.372626|   -3.976504|   -4.161523|   -5.692149|
|         288|   -6.373221|   -3.978321|   -4.164703|   -5.695247|
|         289|   -6.373129|   -3.980134|   -4.168440|   -5.698425|
|         290|   -6.371951|   -3.981888|   -4.172626|   -5.701667|
|         291|   -6.369605|   -3.983501|   -4.177064|   -5.704950|
|         292|   -6.366187|   -3.984894|   -4.181445|   -5.708229|
|         293|   -6.361658|   -3.985989|   -4.185358|   -5.711468|
|         294|   -6.356031|   -3.986704|   -4.188374|   -5.714600|
|         295|   -6.349620|   -3.986990|   -4.190114|   -5.717603|
|         296|   -6.342419|   -3.986869|   -4.190176|   -5.720421|
|         297|   -6.334188|   -3.986343|   -4.188269|   -5.722961|
|         298|   -6.325473|   -3.985464|   -4.184363|   -5.725237|
|         299|   -6.316710|   -3.984402|   -4.178526|   -5.727217|
|         300|   -6.307685|   -3.983269|   -4.171059|   -5.728846|
|         301|   -6.298320|   -3.982176|   -4.162254|   -5.730112|
|         302|   -6.288789|   -3.981254|   -4.152461|   -5.731046|
|         303|   -6.279338|   -3.980684|   -4.141937|   -5.731702|
|         304|   -6.270348|   -3.980607|   -4.131029|   -5.732101|
|         305|   -6.261678|   -3.981066|   -4.120133|   -5.732270|
|         306|   -6.253321|   -3.982117|   -4.109539|   -5.732264|
|         307|   -6.245288|   -3.983809|   -4.099522|   -5.732128|
|         308|   -6.237348|   -3.986199|   -4.090647|   -5.731889|
|         309|   -6.229334|   -3.989289|   -4.083113|   -5.731595|
|         310|   -6.221302|   -3.993047|   -4.076999|   -5.731299|
|         311|   -6.213171|   -3.997412|   -4.072336|   -5.731027|
|         312|   -6.204908|   -4.002292|   -4.069092|   -5.730754|
|         313|   -6.196336|   -4.007566|   -4.067136|   -5.730535|
|         314|   -6.187554|   -4.013181|   -4.066317|   -5.730355|
|         315|   -6.178359|   -4.019126|   -4.066504|   -5.730285|
|         316|   -6.168716|   -4.025434|   -4.067630|   -5.730385|
|         317|   -6.158664|   -4.032121|   -4.069709|   -5.730809|
|         318|   -6.148357|   -4.039208|   -4.072892|   -5.731676|
|         319|   -6.137926|   -4.046722|   -4.077257|   -5.733144|
|         320|   -6.127681|   -4.054676|   -4.082751|   -5.735321|
|         321|   -6.117871|   -4.062999|   -4.089130|   -5.738310|
|         322|   -6.109619|   -4.071684|   -4.095472|   -5.742257|
|         323|   -6.103758|   -4.080645|   -4.101282|   -5.746984|
|         324|   -6.099436|   -4.089723|   -4.107193|   -5.752218|
|         325|   -6.095473|   -4.098601|   -4.113418|   -5.757910|
|         326|   -6.091375|   -4.107090|   -4.119834|   -5.764013|
|         327|   -6.087003|   -4.115043|   -4.126283|   -5.770456|
|         328|   -6.082503|   -4.122321|   -4.132631|   -5.777130|
|         329|   -6.078057|   -4.128866|   -4.138692|   -5.783920|
|         330|   -6.073654|   -4.134654|   -4.144234|   -5.790700|
|         331|   -6.069130|   -4.139740|   -4.149092|   -5.797365|
|         332|   -6.064420|   -4.144249|   -4.153113|   -5.803842|
|         333|   -6.059471|   -4.148350|   -4.156152|   -5.810083|
|         334|   -6.054337|   -4.152258|   -4.158241|   -5.816074|
|         335|   -6.049090|   -4.156136|   -4.159558|   -5.821818|
|         336|   -6.043833|   -4.160160|   -4.160305|   -5.827335|
|         337|   -6.038704|   -4.164435|   -4.160712|   -5.832645|
|         338|   -6.033776|   -4.169041|   -4.161008|   -5.837778|
|         339|   -6.029092|   -4.174030|   -4.161366|   -5.842788|
|         340|   -6.024744|   -4.179448|   -4.161998|   -5.847727|
|         341|   -6.020873|   -4.185343|   -4.162996|   -5.852598|
|         342|   -6.017570|   -4.191691|   -4.164580|   -5.857377|
|         343|   -6.014847|   -4.198402|   -4.166969|   -5.862018|
|         344|   -6.012659|   -4.205391|   -4.170101|   -5.866448|
|         345|   -6.010789|   -4.212500|   -4.173891|   -5.870557|
|         346|   -6.009058|   -4.219530|   -4.178067|   -5.874232|
|         347|   -6.007475|   -4.226330|   -4.179609|   -5.877430|
|         348|   -6.005745|   -4.232809|   -4.180089|   -5.879948|
|         349|   -6.004182|   -4.238915|   -4.180171|   -5.881659|
|         350|   -6.002748|   -4.244624|   -4.179946|   -5.881617|
|         351|   -6.001312|   -4.249890|   -4.179498|   -5.879850|
|         352|   -5.999727|   -4.254647|   -4.178801|   -5.876793|
|         353|   -5.998008|   -4.258878|   -4.177894|   -5.872847|
|         354|   -5.996205|   -4.262621|   -4.176831|   -5.869025|
|         355|   -5.994365|   -4.265882|   -4.175632|   -5.865028|
|         356|   -5.992502|   -4.268651|   -4.174333|   -5.860800|
|         357|   -5.990660|   -4.271038|   -4.172970|   -5.856344|
|         358|   -5.988885|   -4.273235|   -4.171644|   -5.851786|
|         359|   -5.987207|   -4.275336|   -4.170453|   -5.847236|
|         360|   -5.985640|   -4.277387|   -4.169476|   -5.842847|
|         361|   -5.984188|   -4.279377|   -4.168765|   -5.838698|
|         362|   -5.982840|   -4.281256|   -4.168293|   -5.834826|
|         363|   -5.981555|   -4.282917|   -4.168008|   -5.831268|
|         364|   -5.980303|   -4.284319|   -4.167837|   -5.828034|
|         365|   -5.979066|   -4.285475|   -4.167716|   -5.825099|
|         366|   -5.977839|   -4.286408|   -4.167618|   -5.822454|
|         367|   -5.976625|   -4.287154|   -4.167506|   -5.820100|
|         368|   -5.975453|   -4.287749|   -4.167397|   -5.818038|
|         369|   -5.974287|   -4.288217|   -4.167251|   -5.816284|
|         370|   -5.973103|   -4.288610|   -4.167001|   -5.814878|
|         371|   -5.971909|   -4.288976|   -4.166612|   -5.813908|
|         372|   -5.970864|   -4.289341|   -4.166308|   -5.813438|
|         373|   -5.970011|   -4.289747|   -4.166079|   -5.813518|
|         374|   -5.969386|   -4.290255|   -4.165894|   -5.814200|
|         375|   -5.969077|   -4.290950|   -4.165842|   -5.815408|
|         376|   -5.969107|   -4.291865|   -4.165974|   -5.817144|
|         377|   -5.969529|   -4.293000|   -4.166413|   -5.819345|
|         378|   -5.970315|   -4.294303|   -4.167198|   -5.821936|
|         379|   -5.971428|   -4.295672|   -4.168340|   -5.824799|
|         380|   -5.972819|   -4.297003|   -4.169810|   -5.827869|
|         381|   -5.974465|   -4.298153|   -4.171625|   -5.831041|
|         382|   -5.976348|   -4.298993|   -4.173802|   -5.834253|
|         383|   -5.978441|   -4.299448|   -4.176328|   -5.837416|
|         384|   -5.980650|   -4.299448|   -4.179070|   -5.840483|
|         385|   -5.983053|   -4.298957|   -4.182150|   -5.843418|
|         386|   -5.985587|   -4.297932|   -4.185453|   -5.846231|
|         387|   -5.988225|   -4.296354|   -4.188904|   -5.848944|
|         388|   -5.991008|   -4.294243|   -4.192559|   -5.851530|
|         389|   -5.993809|   -4.291679|   -4.196166|   -5.853937|
|         390|   -5.996703|   -4.288707|   -4.199773|   -5.856101|
|         391|   -5.999699|   -4.285385|   -4.203347|   -5.857982|
|         392|   -6.002764|   -4.281812|   -4.206852|   -5.859508|
|         393|   -6.005911|   -4.278131|   -4.210410|   -5.860612|
|         394|   -6.009069|   -4.274427|   -4.213913|   -5.861215|
|         395|   -6.012230|   -4.270838|   -4.217415|   -5.861263|
|         396|   -6.015361|   -4.267480|   -4.220951|   -5.860720|
|         397|   -6.018404|   -4.264477|   -4.224444|   -5.859574|
|         398|   -6.021362|   -4.261874|   -4.227835|   -5.857864|
|         399|   -6.024253|   -4.259650|   -4.231076|   -5.855710|
|         400|   -6.027118|   -4.257798|   -4.234074|   -5.853304|
|         401|   -6.030004|   -4.256171|   -4.233216|   -5.850871|
|         402|   -6.032402|   -4.254686|   -4.230130|   -5.848411|
|         403|   -6.034853|   -4.252986|   -4.226954|   -5.845968|
|         404|   -6.037596|   -4.250866|   -4.224711|   -5.843535|
|         405|   -6.040616|   -4.248274|   -4.223552|   -5.841089|
|         406|   -6.043805|   -4.245423|   -4.223640|   -5.838617|
|         407|   -6.047027|   -4.242598|   -4.224419|   -5.836102|
|         408|   -6.050216|   -4.239996|   -4.225673|   -5.833528|
|         409|   -6.053298|   -4.237568|   -4.227237|   -5.830809|
|         410|   -6.056274|   -4.235361|   -4.229602|   -5.827966|
|         411|   -6.059109|   -4.233394|   -4.232289|   -5.824978|
|         412|   -6.061908|   -4.231778|   -4.236065|   -5.821854|
|         413|   -6.064752|   -4.230353|   -4.240140|   -5.818558|
|         414|   -6.067762|   -4.229139|   -4.245343|   -5.814923|
|         415|   -6.070769|   -4.227751|   -4.250607|   -5.811131|
|         416|   -6.073835|   -4.226097|   -4.256307|   -5.807198|
|         417|   -6.077179|   -4.224078|   -4.262362|   -5.802922|
|         418|   -6.080256|   -4.221584|   -4.268459|   -5.798348|
|         419|   -6.083163|   -4.218596|   -4.274343|   -5.793568|
|         420|   -6.085688|   -4.215154|   -4.279497|   -5.788524|
|         421|   -6.088067|   -4.211179|   -4.283256|   -5.783329|
|         422|   -6.090144|   -4.206785|   -4.286612|   -5.777929|
|         423|   -6.092013|   -4.202015|   -4.289730|   -5.772383|
|         424|   -6.093543|   -4.196888|   -4.292574|   -5.766725|
|         425|   -6.094691|   -4.191371|   -4.294998|   -5.761022|
|         426|   -6.095413|   -4.185399|   -4.296736|   -5.755464|
|         427|   -6.095889|   -4.178929|   -4.297286|   -5.750183|
|         428|   -6.096313|   -4.172092|   -4.297245|   -5.745258|
|         429|   -6.096660|   -4.164977|   -4.296785|   -5.740811|
|         430|   -6.097020|   -4.157649|   -4.295852|   -5.736861|
|         431|   -6.097394|   -4.150186|   -4.294340|   -5.733381|
|         432|   -6.097737|   -4.142684|   -4.292191|   -5.730331|
|         433|   -6.098279|   -4.135236|   -4.289338|   -5.727568|
|         434|   -6.098871|   -4.127879|   -4.285734|   -5.724937|
|         435|   -6.099476|   -4.120648|   -4.281197|   -5.722288|
|         436|   -6.100091|   -4.113549|   -4.275238|   -5.719564|
|         437|   -6.101219|   -4.106734|   -4.268400|   -5.716538|
|         438|   -6.102365|   -4.100266|   -4.260995|   -5.713187|
|         439|   -6.103408|   -4.094175|   -4.253107|   -5.709445|
|         440|   -6.104197|   -4.088475|   -4.244860|   -5.705396|
|         441|   -6.104724|   -4.083191|   -4.236411|   -5.701170|
|         442|   -6.104905|   -4.078316|   -4.227806|   -5.696906|
|         443|   -6.105018|   -4.073765|   -4.219034|   -5.692692|
|         444|   -6.105194|   -4.069542|   -4.210120|   -5.688806|
|         445|   -6.105966|   -4.065723|   -4.201401|   -5.685303|
|         446|   -6.106986|   -4.062356|   -4.193292|   -5.682349|
|         447|   -6.108537|   -4.059336|   -4.186033|   -5.679977|
|         448|   -6.110785|   -4.056568|   -4.179582|   -5.678131|
|         449|   -6.113594|   -4.053857|   -4.173879|   -5.676757|
|         450|   -6.116784|   -4.051161|   -4.168758|   -5.675859|
|         451|   -6.120348|   -4.048406|   -4.163843|   -5.675496|
|         452|   -6.124704|   -4.045645|   -4.159433|   -5.675463|
|         453|   -6.128593|   -4.042873|   -4.155626|   -5.675716|
|         454|   -6.131702|   -4.040001|   -4.152504|   -5.676258|
|         455|   -6.134150|   -4.037048|   -4.150135|   -5.677130|
|         456|   -6.136279|   -4.034131|   -4.148808|   -5.678428|
|         457|   -6.139130|   -4.031514|   -4.149605|   -5.680032|
|         458|   -6.143906|   -4.029503|   -4.153114|   -5.681934|
|         459|   -6.152520|   -4.028107|   -4.159267|   -5.683910|
|         460|   -6.163900|   -4.028285|   -4.168182|   -5.685742|
|         461|   -6.178430|   -4.030126|   -4.179149|   -5.687344|
|         462|   -6.195185|   -4.032552|   -4.190527|   -5.688606|
|         463|   -6.211117|   -4.034399|   -4.200719|   -5.689470|
|         464|   -6.223948|   -4.035600|   -4.209347|   -5.689969|
|         465|   -6.234468|   -4.036363|   -4.216238|   -5.690139|
|         466|   -6.243580|   -4.036784|   -4.221548|   -5.689981|
|         467|   -6.251606|   -4.037049|   -4.225866|   -5.689465|
|         468|   -6.258095|   -4.037277|   -4.229754|   -5.688587|
|         469|   -6.263207|   -4.037507|   -4.233629|   -5.687360|
|         470|   -6.267528|   -4.037816|   -4.237775|   -5.685824|
|         471|   -6.271515|   -4.038217|   -4.242426|   -5.683991|
|         472|   -6.275036|   -4.038676|   -4.247448|   -5.681908|
|         473|   -6.278037|   -4.039088|   -4.252518|   -5.679627|
|         474|   -6.280514|   -4.039361|   -4.257319|   -5.677217|
|         475|   -6.282281|   -4.039446|   -4.261576|   -5.674765|
|         476|   -6.283094|   -4.039319|   -4.265144|   -5.672258|
|         477|   -6.282727|   -4.038981|   -4.268024|   -5.669637|
|         478|   -6.281119|   -4.038414|   -4.270016|   -5.666832|
|         479|   -6.278504|   -4.037548|   -4.270942|   -5.663920|
|         480|   -6.275241|   -4.036411|   -4.270887|   -5.660964|
|         481|   -6.270800|   -4.034994|   -4.269925|   -5.658263|
|         482|   -6.265105|   -4.033249|   -4.268118|   -5.655985|
|         483|   -6.259136|   -4.031274|   -4.265815|   -5.654082|
|         484|   -6.253129|   -4.029400|   -4.263094|   -5.652455|
|         485|   -6.247581|   -4.028042|   -4.259063|   -5.651064|
|         486|   -6.240443|   -4.027217|   -4.254531|   -5.649902|
|         487|   -6.233704|   -4.026331|   -4.253142|   -5.649013|
|         488|   -6.228540|   -4.025310|   -4.254035|   -5.648597|
|         489|   -6.225668|   -4.025035|   -4.255895|   -5.648692|
|         490|   -6.226037|   -4.026353|   -4.258382|   -5.649223|
|         491|   -6.226281|   -4.028787|   -4.261280|   -5.650241|
|         492|   -6.226942|   -4.031146|   -4.263927|   -5.651627|
|         493|   -6.227251|   -4.033541|   -4.265907|   -5.653171|
|         494|   -6.225953|   -4.036332|   -4.267369|   -5.654716|
|         495|   -6.222922|   -4.039464|   -4.267789|   -5.656269|
|         496|   -6.218110|   -4.042638|   -4.267325|   -5.657992|
|         497|   -6.212353|   -4.045546|   -4.265988|   -5.659986|
|         498|   -6.206950|   -4.048264|   -4.263817|   -5.662152|
|         499|   -6.201942|   -4.051012|   -4.261195|   -5.664241|
|         500|   -6.196970|   -4.053897|   -4.258784|   -5.666011|
+-----------------------------------------------------------------------+
|        File Writing Summary       |              Filename             |
+-----------------------------------------------------------------------+
|SU2 restart                        |restart_venturi_mixturedensity_30kW_fine_test.dat|
|                                   |                     (693.558 MB/s)|
|Paraview                           |flow_venturi_mixturedensity_30kW_fine_test_00000500.vtu|
|                                   |                     (6.63712 MB/s)|
|Paraview surface                   |surface_flow_venturi_mixturedensity_30kW_fine_test.vtu|
|                                   |                     (1.75312 MB/s)|
+-----------------------------------------------------------------------+
+----------------------------------------------------------------+
|  Inner_Iter|      rms[P]|      rms[U]|      rms[V]|      rms[c]|
+----------------------------------------------------------------+
|         501|   -6.191886|   -4.056872|   -4.256144|   -5.667428|
|         502|   -6.187549|   -4.059723|   -4.251947|   -5.668607|
|         503|   -6.184350|   -4.062249|   -4.247165|   -5.669677|
|         504|   -6.181503|   -4.064235|   -4.242322|   -5.670786|
|         505|   -6.178917|   -4.065895|   -4.237601|   -5.671968|
|         506|   -6.177074|   -4.067538|   -4.232992|   -5.673201|
|         507|   -6.176145|   -4.069449|   -4.228799|   -5.674466|
|         508|   -6.175649|   -4.071829|   -4.225271|   -5.675789|
|         509|   -6.174954|   -4.074753|   -4.222191|   -5.677198|
|         510|   -6.173712|   -4.078273|   -4.219154|   -5.678684|
|         511|   -6.171782|   -4.082393|   -4.215843|   -5.680185|
|         512|   -6.169236|   -4.087024|   -4.212060|   -5.681638|
|         513|   -6.166220|   -4.092019|   -4.207764|   -5.683009|
|         514|   -6.162901|   -4.097209|   -4.202999|   -5.684295|
|         515|   -6.159566|   -4.102402|   -4.197853|   -5.685500|
|         516|   -6.156376|   -4.107414|   -4.192534|   -5.686638|
|         517|   -6.153474|   -4.112089|   -4.187295|   -5.687723|
|         518|   -6.151034|   -4.116331|   -4.182341|   -5.688759|
|         519|   -6.149097|   -4.120082|   -4.177799|   -5.689751|
|         520|   -6.147575|   -4.123304|   -4.173714|   -5.690705|
|         521|   -6.146303|   -4.125942|   -4.170112|   -5.691625|
|         522|   -6.145133|   -4.127977|   -4.166979|   -5.692519|
|         523|   -6.143864|   -4.129414|   -4.164312|   -5.693395|
|         524|   -6.142315|   -4.130296|   -4.162120|   -5.694268|
|         525|   -6.140341|   -4.130716|   -4.160459|   -5.695151|
|         526|   -6.137830|   -4.130832|   -4.159344|   -5.696060|
|         527|   -6.134789|   -4.130828|   -4.158779|   -5.697004|
|         528|   -6.131335|   -4.130852|   -4.158724|   -5.697989|
|         529|   -6.127661|   -4.130969|   -4.159066|   -5.699014|
|         530|   -6.124017|   -4.131164|   -4.159699|   -5.700083|
|         531|   -6.120817|   -4.131312|   -4.160560|   -5.701205|
|         532|   -6.118564|   -4.131473|   -4.161461|   -5.702379|
|         533|   -6.117682|   -4.132262|   -4.162339|   -5.703602|
|         534|   -6.118475|   -4.134746|   -4.163064|   -5.704866|
|         535|   -6.120749|   -4.139854|   -4.163446|   -5.706172|
|         536|   -6.123701|   -4.146856|   -4.163798|   -5.707511|
|         537|   -6.126617|   -4.154749|   -4.164883|   -5.708888|
|         538|   -6.129106|   -4.162935|   -4.166845|   -5.710295|
|         539|   -6.131058|   -4.170632|   -4.169372|   -5.711719|
|         540|   -6.132541|   -4.177093|   -4.172166|   -5.713147|
|         541|   -6.133686|   -4.182124|   -4.175158|   -5.714567|
|         542|   -6.134604|   -4.186138|   -4.177924|   -5.715973|
|         543|   -6.135399|   -4.189638|   -4.180092|   -5.717354|
|         544|   -6.136113|   -4.192932|   -4.181637|   -5.718697|
|         545|   -6.136756|   -4.196162|   -4.182619|   -5.719993|
|         546|   -6.137330|   -4.199376|   -4.183166|   -5.721228|
|         547|   -6.137836|   -4.202643|   -4.183394|   -5.722398|
|         548|   -6.138277|   -4.205947|   -4.183420|   -5.723497|
|         549|   -6.138680|   -4.209256|   -4.183311|   -5.724527|
|         550|   -6.139062|   -4.212526|   -4.183129|   -5.725494|
|         551|   -6.139443|   -4.215722|   -4.182907|   -5.726406|
|         552|   -6.139839|   -4.218804|   -4.182667|   -5.727274|
|         553|   -6.140266|   -4.221733|   -4.182421|   -5.728111|
|         554|   -6.140734|   -4.224467|   -4.182180|   -5.728930|
|         555|   -6.141253|   -4.226966|   -4.181954|   -5.729745|
|         556|   -6.141832|   -4.229194|   -4.181756|   -5.730571|
|         557|   -6.142476|   -4.231129|   -4.181600|   -5.731419|
|         558|   -6.143189|   -4.232758|   -4.181493|   -5.732296|
|         559|   -6.143974|   -4.234072|   -4.181441|   -5.733211|
|         560|   -6.144838|   -4.235063|   -4.181452|   -5.734164|
|         561|   -6.145789|   -4.235733|   -4.181535|   -5.735155|
|         562|   -6.146834|   -4.236087|   -4.181701|   -5.736181|
|         563|   -6.147982|   -4.236137|   -4.181963|   -5.737237|
|         564|   -6.149238|   -4.235907|   -4.182331|   -5.738317|
|         565|   -6.150608|   -4.235425|   -4.182817|   -5.739418|
|         566|   -6.152092|   -4.234716|   -4.183430|   -5.740537|
|         567|   -6.153688|   -4.233806|   -4.184174|   -5.741676|
|         568|   -6.155391|   -4.232713|   -4.185045|   -5.742838|
|         569|   -6.157194|   -4.231449|   -4.186036|   -5.744029|
|         570|   -6.159090|   -4.230019|   -4.187143|   -5.745259|
|         571|   -6.161071|   -4.228430|   -4.188366|   -5.746538|
|         572|   -6.163137|   -4.226685|   -4.189707|   -5.747876|
|         573|   -6.165280|   -4.224787|   -4.191161|   -5.749283|
|         574|   -6.167498|   -4.222741|   -4.192720|   -5.750768|
|         575|   -6.169790|   -4.220548|   -4.194384|   -5.752339|
|         576|   -6.172161|   -4.218211|   -4.196158|   -5.754001|
|         577|   -6.174616|   -4.215736|   -4.198041|   -5.755758|
|         578|   -6.177163|   -4.213132|   -4.200020|   -5.757612|
|         579|   -6.179807|   -4.210416|   -4.202092|   -5.759562|
|         580|   -6.182553|   -4.207604|   -4.204278|   -5.761609|
|         581|   -6.185414|   -4.204717|   -4.206589|   -5.763751|
|         582|   -6.188393|   -4.201768|   -4.209028|   -5.765988|
|         583|   -6.191494|   -4.198767|   -4.211592|   -5.768318|
|         584|   -6.194720|   -4.195721|   -4.214284|   -5.770739|
|         585|   -6.198080|   -4.192636|   -4.217108|   -5.773251|
|         586|   -6.201576|   -4.189517|   -4.220062|   -5.775852|
|         587|   -6.205212|   -4.186368|   -4.223148|   -5.778541|
|         588|   -6.208986|   -4.183195|   -4.226362|   -5.781315|
|         589|   -6.212901|   -4.180007|   -4.229705|   -5.784172|
|         590|   -6.216957|   -4.176811|   -4.233171|   -5.787112|
|         591|   -6.221145|   -4.173613|   -4.236749|   -5.790130|
|         592|   -6.225455|   -4.170421|   -4.240434|   -5.793226|
|         593|   -6.229881|   -4.167241|   -4.244227|   -5.796397|
|         594|   -6.234421|   -4.164083|   -4.248139|   -5.799639|
|         595|   -6.239074|   -4.160952|   -4.252176|   -5.802952|
|         596|   -6.243843|   -4.157860|   -4.256349|   -5.806333|
|         597|   -6.248754|   -4.154803|   -4.260159|   -5.809775|
|         598|   -6.253709|   -4.151784|   -4.263760|   -5.813273|
|         599|   -6.258782|   -4.148812|   -4.267488|   -5.816825|
|         600|   -6.264043|   -4.145892|   -4.271482|   -5.820428|
|         601|   -6.269521|   -4.143024|   -4.275790|   -5.824081|
|         602|   -6.275212|   -4.140206|   -4.280405|   -5.827782|
|         603|   -6.281120|   -4.137440|   -4.285337|   -5.831530|
|         604|   -6.287259|   -4.134732|   -4.290605|   -5.835323|
|         605|   -6.293647|   -4.132089|   -4.296230|   -5.839161|
|         606|   -6.300306|   -4.129519|   -4.302233|   -5.843044|
|         607|   -6.307257|   -4.127028|   -4.308635|   -5.846969|
|         608|   -6.314531|   -4.124617|   -4.315466|   -5.850938|
|         609|   -6.322161|   -4.122286|   -4.322754|   -5.854949|
|         610|   -6.330163|   -4.120036|   -4.330502|   -5.859001|
|         611|   -6.338555|   -4.117870|   -4.338729|   -5.863095|
|         612|   -6.347360|   -4.115792|   -4.347462|   -5.867231|
|         613|   -6.356595|   -4.113807|   -4.356723|   -5.871408|
|         614|   -6.366277|   -4.111921|   -4.366519|   -5.875627|
|         615|   -6.376419|   -4.110135|   -4.376853|   -5.879887|
|         616|   -6.387028|   -4.108452|   -4.387719|   -5.884192|
|         617|   -6.398108|   -4.106875|   -4.399110|   -5.888540|
|         618|   -6.409653|   -4.105408|   -4.411007|   -5.892933|
|         619|   -6.421643|   -4.104058|   -4.423384|   -5.897372|
|         620|   -6.434058|   -4.102834|   -4.436215|   -5.901859|
|         621|   -6.446886|   -4.101746|   -4.449504|   -5.906396|
|         622|   -6.460076|   -4.100801|   -4.463189|   -5.910984|
|         623|   -6.473545|   -4.100005|   -4.477152|   -5.915623|
|         624|   -6.487214|   -4.099361|   -4.491307|   -5.920315|
|         625|   -6.500997|   -4.098868|   -4.505555|   -5.925061|
|         626|   -6.514790|   -4.098525|   -4.519776|   -5.929862|
|         627|   -6.528454|   -4.098328|   -4.533796|   -5.934719|
|         628|   -6.541837|   -4.098275|   -4.547425|   -5.939632|
|         629|   -6.554780|   -4.098362|   -4.560472|   -5.944602|
|         630|   -6.567097|   -4.098586|   -4.572731|   -5.949629|
|         631|   -6.578595|   -4.098944|   -4.584012|   -5.954712|
|         632|   -6.589083|   -4.099428|   -4.594142|   -5.959850|
|         633|   -6.598381|   -4.100030|   -4.602963|   -5.965042|
|         634|   -6.606324|   -4.100742|   -4.610331|   -5.970286|
|         635|   -6.612783|   -4.101553|   -4.616123|   -5.975581|
|         636|   -6.617665|   -4.102457|   -4.620247|   -5.980925|
|         637|   -6.620930|   -4.103445|   -4.622668|   -5.986314|
|         638|   -6.622613|   -4.104510|   -4.623398|   -5.991747|
|         639|   -6.622759|   -4.105650|   -4.622539|   -5.997219|
|         640|   -6.621482|   -4.106860|   -4.620252|   -6.002726|
|         641|   -6.618929|   -4.108136|   -4.616757|   -6.008264|
|         642|   -6.615268|   -4.109472|   -4.612278|   -6.013830|
|         643|   -6.610675|   -4.110861|   -4.607031|   -6.019420|
|         644|   -6.605331|   -4.112296|   -4.601219|   -6.025033|
|         645|   -6.599413|   -4.113768|   -4.595011|   -6.030667|
|         646|   -6.593091|   -4.115272|   -4.588546|   -6.036321|
|         647|   -6.586505|   -4.116803|   -4.581919|   -6.041990|
|         648|   -6.579768|   -4.118356|   -4.575209|   -6.047675|
|         649|   -6.572987|   -4.119931|   -4.568528|   -6.053376|
|         650|   -6.566246|   -4.121533|   -4.561985|   -6.059093|
|         651|   -6.559595|   -4.123167|   -4.555660|   -6.064825|
|         652|   -6.553055|   -4.124841|   -4.549599|   -6.070571|
|         653|   -6.546638|   -4.126563|   -4.543836|   -6.076330|
|         654|   -6.540343|   -4.128335|   -4.538383|   -6.082100|
|         655|   -6.534161|   -4.130162|   -4.533218|   -6.087879|
|         656|   -6.528080|   -4.132049|   -4.528313|   -6.093666|
|         657|   -6.522079|   -4.134002|   -4.523629|   -6.099460|
|         658|   -6.516129|   -4.136024|   -4.519119|   -6.105259|
|         659|   -6.510201|   -4.138125|   -4.514744|   -6.111063|
|         660|   -6.504266|   -4.140310|   -4.510475|   -6.116872|
|         661|   -6.498292|   -4.142581|   -4.506291|   -6.122684|
|         662|   -6.492236|   -4.144937|   -4.502158|   -6.128500|
|         663|   -6.486053|   -4.147378|   -4.498041|   -6.134323|
|         664|   -6.479710|   -4.149898|   -4.493925|   -6.140156|
|         665|   -6.473193|   -4.152496|   -4.489806|   -6.146002|
|         666|   -6.466496|   -4.155173|   -4.485673|   -6.151867|
|         667|   -6.459623|   -4.157934|   -4.481498|   -6.157752|
|         668|   -6.452576|   -4.160785|   -4.477245|   -6.163662|
|         669|   -6.445334|   -4.163731|   -4.472920|   -6.169597|
|         670|   -6.437927|   -4.166776|   -4.468549|   -6.175559|
|         671|   -6.430407|   -4.169921|   -4.464189|   -6.181547|
|         672|   -6.422777|   -4.173165|   -4.459834|   -6.187554|
|         673|   -6.415031|   -4.176508|   -4.455486|   -6.193573|
|         674|   -6.407180|   -4.179951|   -4.451189|   -6.199595|
|         675|   -6.399239|   -4.183494|   -4.446995|   -6.205607|
|         676|   -6.391229|   -4.187137|   -4.442929|   -6.211589|
|         677|   -6.383169|   -4.190876|   -4.438995|   -6.217518|
|         678|   -6.375074|   -4.194706|   -4.435186|   -6.223363|
|         679|   -6.366964|   -4.198621|   -4.431492|   -6.229091|
|         680|   -6.358866|   -4.202613|   -4.427910|   -6.234671|
|         681|   -6.350805|   -4.206680|   -4.424452|   -6.240061|
|         682|   -6.342795|   -4.210808|   -4.421141|   -6.245219|
|         683|   -6.334847|   -4.214979|   -4.418004|   -6.250105|
|         684|   -6.326981|   -4.219181|   -4.415080|   -6.254673|
|         685|   -6.319204|   -4.223394|   -4.412390|   -6.258882|
|         686|   -6.311517|   -4.227614|   -4.409925|   -6.262690|
|         687|   -6.303920|   -4.231848|   -4.407691|   -6.266051|
|         688|   -6.296422|   -4.236092|   -4.405712|   -6.268929|
|         689|   -6.289038|   -4.240346|   -4.404012|   -6.271280|
|         690|   -6.281763|   -4.244582|   -4.402605|   -6.273071|
|         691|   -6.274604|   -4.248761|   -4.401478|   -6.274271|
|         692|   -6.267628|   -4.252847|   -4.400230|   -6.274866|
|         693|   -6.260738|   -4.256851|   -4.399069|   -6.274833|
|         694|   -6.253973|   -4.260784|   -4.398146|   -6.274148|
|         695|   -6.247352|   -4.264643|   -4.397544|   -6.272793|
|         696|   -6.240875|   -4.268420|   -4.397298|   -6.270759|
|         697|   -6.234531|   -4.272107|   -4.397410|   -6.268044|
|         698|   -6.228315|   -4.275690|   -4.397809|   -6.264665|
|         699|   -6.222212|   -4.279156|   -4.398475|   -6.260651|
|         700|   -6.216214|   -4.282499|   -4.399548|   -6.256021|
|         701|   -6.210334|   -4.285722|   -4.401100|   -6.250807|
|         702|   -6.204575|   -4.288839|   -4.403189|   -6.245056|
|         703|   -6.198990|   -4.291870|   -4.405131|   -6.238896|
|         704|   -6.193456|   -4.294855|   -4.407121|   -6.232398|
|         705|   -6.187981|   -4.297820|   -4.409470|   -6.225629|
|         706|   -6.182594|   -4.300823|   -4.412278|   -6.218655|
|         707|   -6.177278|   -4.303933|   -4.415565|   -6.211594|
|         708|   -6.172013|   -4.307232|   -4.419356|   -6.204550|
|         709|   -6.166778|   -4.310803|   -4.423680|   -6.197682|
|         710|   -6.161815|   -4.314646|   -4.424789|   -6.191598|
|         711|   -6.156608|   -4.318879|   -4.423292|   -6.186405|
|         712|   -6.151237|   -4.323501|   -4.421219|   -6.181929|
|         713|   -6.146024|   -4.328436|   -4.419186|   -6.177989|
|         714|   -6.141039|   -4.333636|   -4.417399|   -6.174376|
|         715|   -6.136265|   -4.339037|   -4.415890|   -6.170916|
|         716|   -6.131681|   -4.344555|   -4.414680|   -6.167487|
|         717|   -6.127423|   -4.350021|   -4.410424|   -6.164260|
|         718|   -6.122979|   -4.355465|   -4.404848|   -6.161004|
|         719|   -6.118555|   -4.360812|   -4.399154|   -6.157582|
|         720|   -6.114291|   -4.366042|   -4.393691|   -6.153966|
|         721|   -6.110264|   -4.371200|   -4.388649|   -6.150163|
|         722|   -6.106464|   -4.376328|   -4.384014|   -6.146254|
|         723|   -6.102910|   -4.381464|   -4.379773|   -6.142337|
|         724|   -6.099554|   -4.386603|   -4.375837|   -6.138522|
|         725|   -6.096354|   -4.391744|   -4.372131|   -6.134877|
|         726|   -6.093316|   -4.396904|   -4.368655|   -6.131404|
|         727|   -6.090438|   -4.402105|   -4.365401|   -6.128090|
|         728|   -6.087687|   -4.407356|   -4.362272|   -6.124931|
|         729|   -6.085141|   -4.412678|   -4.359382|   -6.121902|
|         730|   -6.082736|   -4.418045|   -4.356599|   -6.118963|
|         731|   -6.080475|   -4.423427|   -4.353930|   -6.116093|
|         732|   -6.078350|   -4.428765|   -4.351360|   -6.113273|
|         733|   -6.076377|   -4.434021|   -4.348922|   -6.110482|
|         734|   -6.074562|   -4.439142|   -4.346632|   -6.107720|
|         735|   -6.072799|   -4.444035|   -4.344285|   -6.105031|
|         736|   -6.071250|   -4.448713|   -4.342197|   -6.102381|
|         737|   -6.069815|   -4.453134|   -4.340188|   -6.099703|
|         738|   -6.068522|   -4.457275|   -4.338308|   -6.096970|
|         739|   -6.067372|   -4.461099|   -4.336560|   -6.094191|
|         740|   -6.066371|   -4.464562|   -4.334944|   -6.091420|
|         741|   -6.065572|   -4.467627|   -4.333561|   -6.088669|
|         742|   -6.064881|   -4.470214|   -4.332225|   -6.085893|
|         743|   -6.064343|   -4.472281|   -4.331023|   -6.083033|
|         744|   -6.063960|   -4.473779|   -4.329956|   -6.080079|
|         745|   -6.063694|   -4.474687|   -4.328963|   -6.077068|
|         746|   -6.063561|   -4.475047|   -4.328105|   -6.074018|
|         747|   -6.063549|   -4.474923|   -4.327390|   -6.070926|
|         748|   -6.063636|   -4.474374|   -4.326774|   -6.067799|
|         749|   -6.063814|   -4.473430|   -4.326233|   -6.064672|
|         750|   -6.064121|   -4.472103|   -4.325851|   -6.061616|
|         751|   -6.064539|   -4.470394|   -4.325578|   -6.058711|
|         752|   -6.065061|   -4.468333|   -4.325372|   -6.055962|
|         753|   -6.065682|   -4.466009|   -4.325235|   -6.053285|
|         754|   -6.066418|   -4.463527|   -4.325168|   -6.050558|
|         755|   -6.067271|   -4.460962|   -4.325162|   -6.047685|
|         756|   -6.068253|   -4.458367|   -4.325240|   -6.044607|
|         757|   -6.069355|   -4.455827|   -4.325427|   -6.041305|
|         758|   -6.070543|   -4.453364|   -4.325709|   -6.037773|
|         759|   -6.071801|   -4.451004|   -4.326114|   -6.034031|
|         760|   -6.073109|   -4.448766|   -4.326642|   -6.030102|
|         761|   -6.074456|   -4.446725|   -4.327278|   -6.026007|
|         762|   -6.075830|   -4.444968|   -4.327996|   -6.021754|
|         763|   -6.077211|   -4.443535|   -4.328783|   -6.017346|
|         764|   -6.078584|   -4.442431|   -4.329661|   -6.012837|
|         765|   -6.079944|   -4.441592|   -4.330643|   -6.008331|
|         766|   -6.081278|   -4.440976|   -4.331730|   -6.003962|
|         767|   -6.082573|   -4.440560|   -4.332899|   -5.999857|
|         768|   -6.083820|   -4.440331|   -4.334124|   -5.996077|
|         769|   -6.085024|   -4.440280|   -4.335391|   -5.992616|
|         770|   -6.086188|   -4.440407|   -4.336708|   -5.989453|
|         771|   -6.087320|   -4.440689|   -4.338089|   -5.986567|
|         772|   -6.088414|   -4.441099|   -4.339556|   -5.983953|
|         773|   -6.089471|   -4.441626|   -4.341120|   -5.981609|
|         774|   -6.090488|   -4.442220|   -4.342769|   -5.979521|
|         775|   -6.091461|   -4.442847|   -4.344498|   -5.977657|
|         776|   -6.092415|   -4.443447|   -4.346297|   -5.976006|
|         777|   -6.093327|   -4.443946|   -4.348176|   -5.974554|
|         778|   -6.094207|   -4.444303|   -4.350143|   -5.973341|
|         779|   -6.095089|   -4.444498|   -4.352205|   -5.972412|
|         780|   -6.095967|   -4.444502|   -4.354360|   -5.971644|
|         781|   -6.096858|   -4.444278|   -4.356583|   -5.971076|
|         782|   -6.097715|   -4.443786|   -4.358858|   -5.970756|
|         783|   -6.098612|   -4.442982|   -4.361168|   -5.970645|
|         784|   -6.099588|   -4.441857|   -4.363494|   -5.970702|
|         785|   -6.100570|   -4.440356|   -4.365818|   -5.971070|
|         786|   -6.101642|   -4.438427|   -4.368128|   -5.971628|
|         787|   -6.102792|   -4.436055|   -4.370422|   -5.972600|
|         788|   -6.104048|   -4.433257|   -4.372706|   -5.973930|
|         789|   -6.105443|   -4.429974|   -4.374976|   -5.975498|
|         790|   -6.106974|   -4.426217|   -4.377241|   -5.977256|
|         791|   -6.108619|   -4.421997|   -4.379522|   -5.979385|
|         792|   -6.110452|   -4.417332|   -4.381849|   -5.981843|
|         793|   -6.112435|   -4.412240|   -4.384240|   -5.984733|
|         794|   -6.114651|   -4.406771|   -4.386720|   -5.988040|
|         795|   -6.117037|   -4.400946|   -4.389309|   -5.991983|
|         796|   -6.119713|   -4.394792|   -4.392015|   -5.996374|
|         797|   -6.122615|   -4.388407|   -4.394862|   -6.001292|
|         798|   -6.125769|   -4.381816|   -4.397880|   -6.006740|
|         799|   -6.129172|   -4.375082|   -4.401089|   -6.012733|
|         800|   -6.132819|   -4.368271|   -4.404498|   -6.019254|
|         801|   -6.136703|   -4.361428|   -4.408144|   -6.026282|
|         802|   -6.140815|   -4.354618|   -4.412051|   -6.033769|
|         803|   -6.145147|   -4.347889|   -4.416218|   -6.041630|
|         804|   -6.149682|   -4.341290|   -4.420648|   -6.049810|
|         805|   -6.154411|   -4.334855|   -4.425316|   -6.058201|
|         806|   -6.159318|   -4.328603|   -4.430180|   -6.066782|
|         807|   -6.164382|   -4.322556|   -4.435177|   -6.075458|
|         808|   -6.169587|   -4.316722|   -4.440231|   -6.084141|
|         809|   -6.174911|   -4.311117|   -4.445227|   -6.092764|
|         810|   -6.180330|   -4.305745|   -4.450062|   -6.101230|
|         811|   -6.185813|   -4.300593|   -4.454633|   -6.109423|
|         812|   -6.191328|   -4.295669|   -4.458816|   -6.117268|
|         813|   -6.196843|   -4.290972|   -4.462514|   -6.124745|
|         814|   -6.202329|   -4.286513|   -4.465612|   -6.131833|
|         815|   -6.207763|   -4.282306|   -4.468072|   -6.138519|
|         816|   -6.213142|   -4.278368|   -4.469894|   -6.144738|
|         817|   -6.218426|   -4.274712|   -4.471119|   -6.150515|
|         818|   -6.223579|   -4.271341|   -4.471818|   -6.155893|
|         819|   -6.228596|   -4.268265|   -4.472147|   -6.160893|
|         820|   -6.233480|   -4.265535|   -4.472220|   -6.165588|
|         821|   -6.238267|   -4.263110|   -4.472230|   -6.170023|
|         822|   -6.242989|   -4.260982|   -4.472189|   -6.174315|
|         823|   -6.247670|   -4.259128|   -4.471963|   -6.178306|
|         824|   -6.252322|   -4.257523|   -4.471388|   -6.181924|
|         825|   -6.256928|   -4.256119|   -4.470379|   -6.185131|
|         826|   -6.261474|   -4.254860|   -4.468841|   -6.187687|
|         827|   -6.265872|   -4.253699|   -4.466807|   -6.189472|
|         828|   -6.270083|   -4.252600|   -4.464349|   -6.190461|
|         829|   -6.274041|   -4.251541|   -4.461555|   -6.190556|
|         830|   -6.277723|   -4.250529|   -4.458452|   -6.189738|
|         831|   -6.281129|   -4.249567|   -4.455048|   -6.188040|
|         832|   -6.284269|   -4.248692|   -4.451359|   -6.185453|
|         833|   -6.287202|   -4.247932|   -4.447464|   -6.181975|
|         834|   -6.290016|   -4.247313|   -4.443438|   -6.177772|
|         835|   -6.292702|   -4.246806|   -4.439361|   -6.172748|
|         836|   -6.295340|   -4.246400|   -4.435371|   -6.166913|
|         837|   -6.297888|   -4.246106|   -4.431614|   -6.160365|
|         838|   -6.300321|   -4.245925|   -4.428179|   -6.153197|
|         839|   -6.302564|   -4.245851|   -4.425088|   -6.145505|
|         840|   -6.304613|   -4.245871|   -4.422263|   -6.137373|
|         841|   -6.306373|   -4.245961|   -4.419591|   -6.128940|
|         842|   -6.307760|   -4.246136|   -4.416925|   -6.120328|
|         843|   -6.308751|   -4.246339|   -4.414163|   -6.111759|
|         844|   -6.309425|   -4.246551|   -4.411216|   -6.103244|
|         845|   -6.309920|   -4.246667|   -4.408094|   -6.094667|
|         846|   -6.310186|   -4.246624|   -4.404874|   -6.086014|
|         847|   -6.310227|   -4.246374|   -4.401770|   -6.077546|
|         848|   -6.309995|   -4.246001|   -4.399000|   -6.069580|
|         849|   -6.309435|   -4.245627|   -4.396704|   -6.062252|
|         850|   -6.308991|   -4.245397|   -4.394785|   -6.055583|
|         851|   -6.309150|   -4.245438|   -4.392811|   -6.049541|
|         852|   -6.309766|   -4.245637|   -4.391115|   -6.044493|
|         853|   -6.310764|   -4.245773|   -4.390754|   -6.040620|
|         854|   -6.312525|   -4.245729|   -4.391895|   -6.037571|
|         855|   -6.316002|   -4.245534|   -4.394171|   -6.034737|
|         856|   -6.321076|   -4.245546|   -4.397006|   -6.031961|
|         857|   -6.326132|   -4.246042|   -4.400005|   -6.029203|
|         858|   -6.330581|   -4.246879|   -4.403115|   -6.026079|
|         859|   -6.334785|   -4.247648|   -4.406204|   -6.022339|
|         860|   -6.338136|   -4.248121|   -4.408850|   -6.018038|
|         861|   -6.340003|   -4.248355|   -4.410773|   -6.013437|
|         862|   -6.340409|   -4.248471|   -4.412066|   -6.009062|
|         863|   -6.339672|   -4.248492|   -4.412750|   -6.005569|
|         864|   -6.338480|   -4.248369|   -4.412618|   -6.003290|
|         865|   -6.337347|   -4.247995|   -4.411842|   -6.001810|
|         866|   -6.336599|   -4.247422|   -4.410661|   -6.000275|
|         867|   -6.336055|   -4.246917|   -4.409581|   -5.998177|
|         868|   -6.335631|   -4.246789|   -4.409109|   -5.995571|
|         869|   -6.335266|   -4.247277|   -4.409018|   -5.992947|
|         870|   -6.335101|   -4.248094|   -4.408777|   -5.990878|
|         871|   -6.335823|   -4.248913|   -4.408735|   -5.989665|
|         872|   -6.338831|   -4.249618|   -4.409768|   -5.989184|
|         873|   -6.344988|   -4.250231|   -4.412442|   -5.989248|
|         874|   -6.354213|   -4.250828|   -4.416874|   -5.989666|
|         875|   -6.366038|   -4.251502|   -4.422773|   -5.990171|
|         876|   -6.379898|   -4.252282|   -4.429591|   -5.990542|
|         877|   -6.395073|   -4.253183|   -4.436712|   -5.990643|
|         878|   -6.410784|   -4.254213|   -4.443198|   -5.990445|
|         879|   -6.427256|   -4.255322|   -4.449027|   -5.989967|
|         880|   -6.443838|   -4.256456|   -4.454517|   -5.989237|
|         881|   -6.458955|   -4.257565|   -4.459311|   -5.988315|
|         882|   -6.472221|   -4.258574|   -4.463418|   -5.987260|
|         883|   -6.483858|   -4.259430|   -4.467003|   -5.986128|
|         884|   -6.494016|   -4.260111|   -4.470153|   -5.984958|
|         885|   -6.502654|   -4.260636|   -4.472819|   -5.983780|
|         886|   -6.509864|   -4.261010|   -4.474895|   -5.982623|
|         887|   -6.515912|   -4.261308|   -4.476282|   -5.981506|
|         888|   -6.521158|   -4.261596|   -4.476839|   -5.980447|
|         889|   -6.525892|   -4.261963|   -4.476400|   -5.979454|
|         890|   -6.530227|   -4.262605|   -4.474869|   -5.978525|
|         891|   -6.534101|   -4.263542|   -4.472259|   -5.977654|
|         892|   -6.537122|   -4.264728|   -4.469128|   -5.976839|
|         893|   -6.538880|   -4.265937|   -4.465855|   -5.976083|
|         894|   -6.539115|   -4.267040|   -4.462624|   -5.975389|
|         895|   -6.537674|   -4.267947|   -4.459406|   -5.974748|
|         896|   -6.534498|   -4.268580|   -4.456062|   -5.974146|
|         897|   -6.529613|   -4.268864|   -4.452317|   -5.973562|
|         898|   -6.523064|   -4.268730|   -4.447824|   -5.972977|
|         899|   -6.514994|   -4.268133|   -4.442379|   -5.972372|
|         900|   -6.506474|   -4.267071|   -4.435694|   -5.971764|
|         901|   -6.497557|   -4.265678|   -4.427908|   -5.971136|
|         902|   -6.488576|   -4.264044|   -4.419413|   -5.970473|
|         903|   -6.479903|   -4.262308|   -4.410472|   -5.969768|
|         904|   -6.471658|   -4.260629|   -4.401311|   -5.969030|
|         905|   -6.463766|   -4.259145|   -4.392125|   -5.968257|
|         906|   -6.455839|   -4.257861|   -4.383152|   -5.967435|
|         907|   -6.447232|   -4.256733|   -4.374638|   -5.966542|
|         908|   -6.437106|   -4.255566|   -4.366772|   -5.965531|
|         909|   -6.425228|   -4.254120|   -4.359324|   -5.964476|
|         910|   -6.411135|   -4.252351|   -4.352308|   -5.963430|
|         911|   -6.394274|   -4.250201|   -4.346550|   -5.962316|
|         912|   -6.374841|   -4.247742|   -4.342347|   -5.961142|
|         913|   -6.353945|   -4.245502|   -4.339682|   -5.959909|
|         914|   -6.332732|   -4.244000|   -4.338748|   -5.958678|
|         915|   -6.312509|   -4.243622|   -4.339722|   -5.957489|
|         916|   -6.294431|   -4.244528|   -4.342585|   -5.956331|
|         917|   -6.279323|   -4.246593|   -4.347091|   -5.955142|
|         918|   -6.267861|   -4.249544|   -4.352599|   -5.953908|
|         919|   -6.261356|   -4.253287|   -4.358260|   -5.952657|
|         920|   -6.260816|   -4.258834|   -4.363090|   -5.951411|
|         921|   -6.266590|   -4.267460|   -4.366335|   -5.950186|
|         922|   -6.274867|   -4.279695|   -4.367760|   -5.949180|
|         923|   -6.280655|   -4.292898|   -4.370429|   -5.948515|
|         924|   -6.283191|   -4.305019|   -4.376351|   -5.948088|
|         925|   -6.282975|   -4.315099|   -4.384154|   -5.947750|
|         926|   -6.281000|   -4.322892|   -4.392361|   -5.947383|
|         927|   -6.277886|   -4.329011|   -4.400528|   -5.946941|
|         928|   -6.274512|   -4.334355|   -4.407913|   -5.946406|
|         929|   -6.271053|   -4.339382|   -4.413686|   -5.945759|
|         930|   -6.267513|   -4.344180|   -4.417957|   -5.945007|
|         931|   -6.263812|   -4.349059|   -4.421093|   -5.944169|
|         932|   -6.259971|   -4.354036|   -4.423373|   -5.943256|
|         933|   -6.256141|   -4.359125|   -4.424947|   -5.942292|
|         934|   -6.252419|   -4.364350|   -4.425894|   -5.941312|
|         935|   -6.248891|   -4.369723|   -4.426280|   -5.940352|
|         936|   -6.245647|   -4.375198|   -4.426176|   -5.939444|
|         937|   -6.242765|   -4.380682|   -4.425673|   -5.938608|
|         938|   -6.240312|   -4.386064|   -4.424881|   -5.937851|
|         939|   -6.238318|   -4.391250|   -4.423874|   -5.937173|
|         940|   -6.236758|   -4.396154|   -4.422748|   -5.936577|
|         941|   -6.235554|   -4.400710|   -4.421511|   -5.936057|
|         942|   -6.234608|   -4.404890|   -4.420170|   -5.935616|
|         943|   -6.233811|   -4.408661|   -4.418687|   -5.935256|
|         944|   -6.233080|   -4.411996|   -4.417001|   -5.934981|
|         945|   -6.232375|   -4.414891|   -4.415067|   -5.934790|
|         946|   -6.231672|   -4.417357|   -4.412883|   -5.934676|
|         947|   -6.230961|   -4.419420|   -4.410439|   -5.934622|
|         948|   -6.230236|   -4.421121|   -4.407735|   -5.934610|
|         949|   -6.229493|   -4.422517|   -4.404789|   -5.934618|
|         950|   -6.228722|   -4.423673|   -4.401630|   -5.934625|
|         951|   -6.227912|   -4.424648|   -4.398284|   -5.934615|
|         952|   -6.227055|   -4.425504|   -4.394759|   -5.934574|
|         953|   -6.226149|   -4.426314|   -4.391060|   -5.934491|
|         954|   -6.225187|   -4.427104|   -4.387178|   -5.934357|
|         955|   -6.224198|   -4.427874|   -4.383101|   -5.934164|
|         956|   -6.223204|   -4.428617|   -4.378831|   -5.933914|
|         957|   -6.222209|   -4.429335|   -4.374396|   -5.933610|
|         958|   -6.221226|   -4.430063|   -4.369810|   -5.933253|
|         959|   -6.220280|   -4.430807|   -4.365106|   -5.932841|
|         960|   -6.219389|   -4.431566|   -4.360303|   -5.932373|
|         961|   -6.218561|   -4.432347|   -4.355416|   -5.931853|
|         962|   -6.217797|   -4.433160|   -4.350456|   -5.931284|
|         963|   -6.217100|   -4.433992|   -4.345445|   -5.930667|
|         964|   -6.216468|   -4.434826|   -4.340420|   -5.930008|
[...]
|         995|   -6.209674|   -4.393914|   -4.256952|   -5.931222|
|         996|   -6.210992|   -4.388966|   -4.256040|   -5.932578|
|         997|   -6.212440|   -4.383752|   -4.255195|   -5.934032|
|         998|   -6.214016|   -4.378284|   -4.254442|   -5.935587|
|         999|   -6.215711|   -4.372577|   -4.253798|   -5.937242|
|        1000|   -6.217513|   -4.366657|   -4.253277|   -5.939002|
+-----------------------------------------------------------------------+
|        File Writing Summary       |              Filename             |
+-----------------------------------------------------------------------+
|SU2 restart                        |restart_venturi_mixturedensity_30kW_fine_test.dat|
|                                   |                     (1037.46 MB/s)|
|Paraview                           |flow_venturi_mixturedensity_30kW_fine_test_00001000.vtu|
|                                   |                     (6.55708 MB/s)|
|Paraview surface                   |surface_flow_venturi_mixturedensity_30kW_fine_test.vtu|
|                                   |                     (1.74084 MB/s)|
+-----------------------------------------------------------------------+
+----------------------------------------------------------------+
|  Inner_Iter|      rms[P]|      rms[U]|      rms[V]|      rms[c]|
+----------------------------------------------------------------+
|        1001|   -6.219407|   -4.360553|   -4.252884|   -5.940863|
|        1002|   -6.221371|   -4.354306|   -4.252609|   -5.942829|
|        1003|   -6.223384|   -4.347954|   -4.252437|   -5.944897|
|        1004|   -6.225428|   -4.341544|   -4.252354|   -5.947068|
|        1005|   -6.227487|   -4.335117|   -4.252349|   -5.949337|
|        1006|   -6.229552|   -4.328718|   -4.252416|   -5.951708|
|        1007|   -6.231620|   -4.322388|   -4.252561|   -5.954174|
|        1008|   -6.233696|   -4.316160|   -4.252796|   -5.956727|
|        1009|   -6.235786|   -4.310069|   -4.253144|   -5.959360|
|        1010|   -6.237901|   -4.304145|   -4.253629|   -5.962065|
|        1011|   -6.240056|   -4.298419|   -4.254280|   -5.964835|
|        1012|   -6.242264|   -4.292911|   -4.255124|   -5.967661|
|        1013|   -6.244537|   -4.287632|   -4.256186|   -5.970537|
|        1014|   -6.246888|   -4.282590|   -4.257486|   -5.973454|
|        1015|   -6.249321|   -4.277780|   -4.258988|   -5.976403|
|        1016|   -6.251834|   -4.273199|   -4.260712|   -5.979373|
|        1017|   -6.254429|   -4.268838|   -4.262674|   -5.982355|
|        1018|   -6.257110|   -4.264685|   -4.264868|   -5.985337|
|        1019|   -6.259878|   -4.260723|   -4.267282|   -5.988307|
|        1020|   -6.262738|   -4.256930|   -4.269907|   -5.991251|
|        1021|   -6.265715|   -4.253269|   -4.272405|   -5.994155|
|        1022|   -6.268778|   -4.249707|   -4.274718|   -5.997001|
|        1023|   -6.271926|   -4.246217|   -4.277146|   -5.999778|
|        1024|   -6.275235|   -4.242766|   -4.279791|   -6.002473|
|        1025|   -6.278747|   -4.239318|   -4.282684|   -6.005073|
|        1026|   -6.282501|   -4.235837|   -4.285856|   -6.007567|
|        1027|   -6.286522|   -4.232289|   -4.289314|   -6.009947|
|        1028|   -6.290837|   -4.228648|   -4.293065|   -6.012205|
|        1029|   -6.295463|   -4.224895|   -4.297103|   -6.014335|
|        1030|   -6.300407|   -4.221018|   -4.301406|   -6.016331|
|        1031|   -6.305669|   -4.217015|   -4.305944|   -6.018190|
|        1032|   -6.311235|   -4.212892|   -4.310682|   -6.019909|
|        1033|   -6.317084|   -4.208665|   -4.315577|   -6.021488|
|        1034|   -6.323189|   -4.204357|   -4.320584|   -6.022930|
|        1035|   -6.329515|   -4.199996|   -4.325666|   -6.024241|
|        1036|   -6.336027|   -4.195613|   -4.330795|   -6.025429|
|        1037|   -6.342694|   -4.191239|   -4.335960|   -6.026507|
|        1038|   -6.349494|   -4.186907|   -4.341173|   -6.027494|
|        1039|   -6.356414|   -4.182654|   -4.346464|   -6.028412|
|        1040|   -6.363451|   -4.178511|   -4.351873|   -6.029286|
|        1041|   -6.370613|   -4.174507|   -4.357457|   -6.030146|
|        1042|   -6.377915|   -4.170666|   -4.363272|   -6.031025|
|        1043|   -6.385379|   -4.167007|   -4.369382|   -6.031955|
|        1044|   -6.393052|   -4.163541|   -4.375713|   -6.032973|
|        1045|   -6.400944|   -4.160277|   -4.382316|   -6.034107|
|        1046|   -6.409070|   -4.157225|   -4.389352|   -6.035384|
|        1047|   -6.417473|   -4.154387|   -4.396888|   -6.036828|
|        1048|   -6.426179|   -4.151762|   -4.404954|   -6.038458|
|        1049|   -6.435201|   -4.149346|   -4.413556|   -6.040288|
|        1050|   -6.444536|   -4.147138|   -4.422673|   -6.042326|
|        1051|   -6.454167|   -4.145131|   -4.432258|   -6.044573|
|        1052|   -6.464067|   -4.143322|   -4.442224|   -6.047029|
|        1053|   -6.474210|   -4.141703|   -4.452430|   -6.049686|
|        1054|   -6.484511|   -4.140272|   -4.462844|   -6.052532|
|        1055|   -6.494916|   -4.139023|   -4.473376|   -6.055553|
|        1056|   -6.505367|   -4.137950|   -4.483919|   -6.058734|
|        1057|   -6.515798|   -4.137047|   -4.494360|   -6.062060|
|        1058|   -6.526141|   -4.136310|   -4.504588|   -6.065514|
|        1059|   -6.536332|   -4.135732|   -4.514497|   -6.069080|
|        1060|   -6.546308|   -4.135309|   -4.523992|   -6.072743|
|        1061|   -6.556016|   -4.135038|   -4.532982|   -6.076490|
|        1062|   -6.565409|   -4.134915|   -4.541397|   -6.080309|
|        1063|   -6.574448|   -4.134936|   -4.549190|   -6.084188|
|        1064|   -6.583096|   -4.135096|   -4.556323|   -6.088118|
|        1065|   -6.591336|   -4.135393|   -4.562786|   -6.092091|
|        1066|   -6.599161|   -4.135820|   -4.568581|   -6.096095|
|        1067|   -6.606520|   -4.136366|   -4.573721|   -6.100126|
|        1068|   -6.613433|   -4.137023|   -4.578225|   -6.104175|
|        1069|   -6.619907|   -4.137782|   -4.582114|   -6.108233|
|        1070|   -6.625956|   -4.138630|   -4.585397|   -6.112288|
|        1071|   -6.631591|   -4.139550|   -4.588090|   -6.116333|
|        1072|   -6.636827|   -4.140527|   -4.590201|   -6.120357|
|        1073|   -6.641674|   -4.141545|   -4.591742|   -6.124351|
|        1074|   -6.646132|   -4.142590|   -4.592728|   -6.128307|
|        1075|   -6.650200|   -4.143655|   -4.593181|   -6.132214|
|        1076|   -6.653864|   -4.144730|   -4.593126|   -6.136065|
|        1077|   -6.657108|   -4.145811|   -4.592590|   -6.139852|
|        1078|   -6.659904|   -4.146896|   -4.591602|   -6.143570|
|        1079|   -6.662225|   -4.147983|   -4.590192|   -6.147213|
|        1080|   -6.664030|   -4.149073|   -4.588392|   -6.150777|
|        1081|   -6.665277|   -4.150169|   -4.586233|   -6.154259|
|        1082|   -6.665930|   -4.151278|   -4.583752|   -6.157656|
|        1083|   -6.665953|   -4.152406|   -4.580983|   -6.160967|
|        1084|   -6.665320|   -4.153561|   -4.577964|   -6.164192|
|        1085|   -6.664004|   -4.154752|   -4.574735|   -6.167331|
|        1086|   -6.662008|   -4.155987|   -4.571324|   -6.170385|
|        1087|   -6.659324|   -4.157272|   -4.567764|   -6.173357|
|        1088|   -6.655964|   -4.158619|   -4.564092|   -6.176250|
|        1089|   -6.651956|   -4.160038|   -4.560344|   -6.179067|
|        1090|   -6.647334|   -4.161533|   -4.556571|   -6.181812|
|        1091|   -6.642137|   -4.163115|   -4.552798|   -6.184489|
|        1092|   -6.636420|   -4.164791|   -4.549052|   -6.187103|
|        1093|   -6.630237|   -4.166569|   -4.545358|   -6.189656|
|        1094|   -6.623643|   -4.168453|   -4.541734|   -6.192151|
|        1095|   -6.616690|   -4.170450|   -4.538203|   -6.194591|
|        1096|   -6.609424|   -4.172564|   -4.534780|   -6.196979|
|        1097|   -6.601889|   -4.174802|   -4.531476|   -6.199314|
|        1098|   -6.594122|   -4.177166|   -4.528299|   -6.201600|
|        1099|   -6.586159|   -4.179656|   -4.525242|   -6.203836|
|        1100|   -6.578029|   -4.182279|   -4.522301|   -6.206025|
|        1101|   -6.569763|   -4.185038|   -4.519476|   -6.208167|
|        1102|   -6.561391|   -4.187933|   -4.516764|   -6.210260|
|        1103|   -6.552942|   -4.190967|   -4.514156|   -6.212304|
|        1104|   -6.544433|   -4.194141|   -4.511646|   -6.214296|
|        1105|   -6.535893|   -4.197457|   -4.509223|   -6.216237|
|        1106|   -6.527345|   -4.200913|   -4.506888|   -6.218123|
|        1107|   -6.518822|   -4.204510|   -4.504642|   -6.219955|
|        1108|   -6.510343|   -4.208244|   -4.502486|   -6.221729|
|        1109|   -6.501921|   -4.212113|   -4.500420|   -6.223440|
|        1110|   -6.493578|   -4.216111|   -4.498456|   -6.225086|
|        1111|   -6.485329|   -4.220233|   -4.496582|   -6.226663|
|        1112|   -6.477187|   -4.224469|   -4.494802|   -6.228178|
|        1113|   -6.469157|   -4.228809|   -4.493121|   -6.229617|
|        1114|   -6.461245|   -4.233241|   -4.491543|   -6.230975|
|        1115|   -6.453461|   -4.237752|   -4.490075|   -6.232247|
|        1116|   -6.445809|   -4.242329|   -4.488724|   -6.233428|
|        1117|   -6.438294|   -4.246959|   -4.487499|   -6.234512|
|        1118|   -6.430921|   -4.251628|   -4.486418|   -6.235497|
|        1119|   -6.423694|   -4.256325|   -4.485493|   -6.236379|
|        1120|   -6.416616|   -4.261036|   -4.484736|   -6.237153|
|        1121|   -6.409688|   -4.265750|   -4.484155|   -6.237819|
|        1122|   -6.402907|   -4.270456|   -4.483769|   -6.238377|
|        1123|   -6.396270|   -4.275144|   -4.483592|   -6.238825|
|        1124|   -6.389775|   -4.279809|   -4.483634|   -6.239167|
|        1125|   -6.383418|   -4.284443|   -4.483906|   -6.239401|
|        1126|   -6.377188|   -4.289039|   -4.484420|   -6.239532|
|        1127|   -6.371105|   -4.293588|   -4.485013|   -6.239569|
|        1128|   -6.365131|   -4.298091|   -4.485665|   -6.239521|
|        1129|   -6.359241|   -4.302552|   -4.486499|   -6.239389|
|        1130|   -6.353458|   -4.306973|   -4.487500|   -6.239183|
|        1131|   -6.347774|   -4.311363|   -4.488677|   -6.238909|
|        1132|   -6.342178|   -4.315730|   -4.490091|   -6.238576|
|        1133|   -6.336675|   -4.320087|   -4.491762|   -6.238191|
|        1134|   -6.331267|   -4.324442|   -4.493703|   -6.237761|
|        1135|   -6.325948|   -4.328802|   -4.495928|   -6.237295|
|        1136|   -6.320713|   -4.333172|   -4.498449|   -6.236802|
|        1137|   -6.315557|   -4.337556|   -4.501277|   -6.236290|
|        1138|   -6.310474|   -4.341955|   -4.504423|   -6.235769|
|        1139|   -6.305460|   -4.346364|   -4.507888|   -6.235248|
|        1140|   -6.300508|   -4.350774|   -4.511688|   -6.234739|
|        1141|   -6.295619|   -4.355172|   -4.515828|   -6.234251|
|        1142|   -6.290791|   -4.359541|   -4.520313|   -6.233796|
|        1143|   -6.286029|   -4.363860|   -4.525159|   -6.233381|
|        1144|   -6.281343|   -4.368109|   -4.530391|   -6.233015|
|        1145|   -6.276740|   -4.372273|   -4.536031|   -6.232702|
|        1146|   -6.272240|   -4.376328|   -4.541945|   -6.232450|
|        1147|   -6.267843|   -4.380258|   -4.547977|   -6.232266|
|        1148|   -6.263523|   -4.384051|   -4.554252|   -6.232144|
|        1149|   -6.259281|   -4.387701|   -4.560936|   -6.232071|
|        1150|   -6.255132|   -4.391203|   -4.568099|   -6.232039|
|        1151|   -6.251378|   -4.394477|   -4.572221|   -6.232166|
|        1152|   -6.247336|   -4.397562|   -4.573950|   -6.232306|
|        1153|   -6.242989|   -4.400525|   -4.574983|   -6.232321|
|        1154|   -6.238567|   -4.403408|   -4.575728|   -6.232184|
|        1155|   -6.234160|   -4.406257|   -4.576426|   -6.231911|
|        1156|   -6.229855|   -4.409134|   -4.577221|   -6.231531|
|        1157|   -6.225690|   -4.412076|   -4.578245|   -6.231049|
|        1158|   -6.221670|   -4.415110|   -4.579500|   -6.230478|
|        1159|   -6.217768|   -4.418249|   -4.580915|   -6.229836|
|        1160|   -6.213955|   -4.421494|   -4.582423|   -6.229151|
|        1161|   -6.210209|   -4.424854|   -4.583937|   -6.228437|
|        1162|   -6.206515|   -4.428332|   -4.585383|   -6.227729|
|        1163|   -6.202860|   -4.431927|   -4.586695|   -6.227035|
|        1164|   -6.199230|   -4.435643|   -4.587801|   -6.226354|
|        1165|   -6.195627|   -4.439482|   -4.588662|   -6.225690|
|        1166|   -6.192056|   -4.443442|   -4.589265|   -6.225064|
|        1167|   -6.188524|   -4.447528|   -4.589626|   -6.224463|
|        1168|   -6.185043|   -4.451741|   -4.589775|   -6.223918|
|        1169|   -6.181623|   -4.456078|   -4.589757|   -6.223385|
|        1170|   -6.178279|   -4.460528|   -4.589637|   -6.222867|
|        1171|   -6.175023|   -4.465087|   -4.589477|   -6.222398|
|        1172|   -6.171861|   -4.469743|   -4.589326|   -6.221950|
|        1173|   -6.168798|   -4.474483|   -4.589222|   -6.221487|
|        1174|   -6.165833|   -4.479295|   -4.589188|   -6.221058|
|        1175|   -6.162959|   -4.484172|   -4.589224|   -6.220620|
|        1176|   -6.160172|   -4.489108|   -4.589325|   -6.220160|
|        1177|   -6.157467|   -4.494094|   -4.589476|   -6.219679|
|        1178|   -6.154874|   -4.499109|   -4.588595|   -6.219181|
|        1179|   -6.152258|   -4.504131|   -4.585810|   -6.218667|
|        1180|   -6.149452|   -4.509164|   -4.582233|   -6.218098|
|        1181|   -6.146615|   -4.514206|   -4.578256|   -6.217462|
|        1182|   -6.143840|   -4.519265|   -4.574166|   -6.216750|
|        1183|   -6.141178|   -4.524340|   -4.570147|   -6.215951|
|        1184|   -6.138640|   -4.529416|   -4.566254|   -6.215053|
|        1185|   -6.136236|   -4.534482|   -4.562517|   -6.214042|
|        1186|   -6.133954|   -4.539509|   -4.558913|   -6.212916|
|        1187|   -6.131801|   -4.544472|   -4.555464|   -6.211666|
|        1188|   -6.129759|   -4.549353|   -4.552119|   -6.210288|
|        1189|   -6.127803|   -4.554116|   -4.548796|   -6.208773|
|        1190|   -6.125954|   -4.558744|   -4.545579|   -6.207107|
|        1191|   -6.124208|   -4.563216|   -4.542503|   -6.205285|
|        1192|   -6.122545|   -4.567507|   -4.539508|   -6.203309|
|        1193|   -6.120956|   -4.571592|   -4.536572|   -6.201191|
|        1194|   -6.119448|   -4.575457|   -4.533723|   -6.198940|
|        1195|   -6.118015|   -4.579080|   -4.530953|   -6.196575|
|        1196|   -6.116657|   -4.582439|   -4.528272|   -6.194111|
|        1197|   -6.115374|   -4.585520|   -4.525690|   -6.191557|
|        1198|   -6.114165|   -4.588316|   -4.523216|   -6.188915|
|        1199|   -6.113035|   -4.590826|   -4.520858|   -6.186176|
|        1200|   -6.111979|   -4.593054|   -4.518622|   -6.183345|
|        1201|   -6.111004|   -4.595011|   -4.516534|   -6.180426|
|        1202|   -6.110092|   -4.596708|   -4.514553|   -6.177455|
|        1203|   -6.109246|   -4.598162|   -4.512697|   -6.174448|
|        1204|   -6.108463|   -4.599399|   -4.510963|   -6.171460|
|        1205|   -6.107736|   -4.600437|   -4.509342|   -6.168508|
|        1206|   -6.107065|   -4.601303|   -4.507845|   -6.165625|
|        1207|   -6.106446|   -4.602023|   -4.506470|   -6.162847|
|        1208|   -6.105874|   -4.602611|   -4.505187|   -6.160201|
|        1209|   -6.105343|   -4.603091|   -4.503993|   -6.157726|
|        1210|   -6.104855|   -4.603456|   -4.502881|   -6.155450|
|        1211|   -6.104415|   -4.603713|   -4.501839|   -6.153365|
|        1212|   -6.104011|   -4.603895|   -4.500864|   -6.151478|
|        1213|   -6.103630|   -4.603981|   -4.499944|   -6.149818|
|        1214|   -6.103298|   -4.603995|   -4.499074|   -6.148323|
|        1215|   -6.103001|   -4.603930|   -4.498249|   -6.147003|
|        1216|   -6.102722|   -4.603747|   -4.497458|   -6.145866|
|        1217|   -6.102483|   -4.603493|   -4.496707|   -6.144859|
|        1218|   -6.102310|   -4.603178|   -4.495988|   -6.143955|
|        1219|   -6.102158|   -4.602744|   -4.495297|   -6.143113|
|        1220|   -6.102064|   -4.602222|   -4.494646|   -6.142281|
|        1221|   -6.102027|   -4.601633|   -4.494043|   -6.141458|
|        1222|   -6.102032|   -4.600988|   -4.493475|   -6.140548|
|        1223|   -6.102106|   -4.600299|   -4.492923|   -6.139485|
|        1224|   -6.102225|   -4.599618|   -4.492352|   -6.138310|
|        1225|   -6.102395|   -4.598948|   -4.491733|   -6.137063|
|        1226|   -6.102638|   -4.598319|   -4.491106|   -6.135730|
|        1227|   -6.102971|   -4.597784|   -4.490510|   -6.134327|
|        1228|   -6.103377|   -4.597362|   -4.490025|   -6.132854|
|        1229|   -6.103845|   -4.597004|   -4.489724|   -6.131327|
|        1230|   -6.104376|   -4.596657|   -4.489650|   -6.129682|
|        1231|   -6.104955|   -4.596240|   -4.489791|   -6.127919|
|        1232|   -6.105578|   -4.595711|   -4.490080|   -6.126046|
|        1233|   -6.106239|   -4.595056|   -4.490438|   -6.124080|
|        1234|   -6.106938|   -4.594259|   -4.490816|   -6.122092|
|        1235|   -6.107676|   -4.593337|   -4.491225|   -6.120167|
|        1236|   -6.108460|   -4.592298|   -4.491684|   -6.118354|
|        1237|   -6.109283|   -4.591116|   -4.492235|   -6.116721|
|        1238|   -6.110147|   -4.589754|   -4.492896|   -6.115336|
|        1239|   -6.111053|   -4.588207|   -4.493669|   -6.114273|
|        1240|   -6.112007|   -4.586453|   -4.494537|   -6.113580|
|        1241|   -6.113012|   -4.584477|   -4.495469|   -6.113324|
|        1242|   -6.114077|   -4.582261|   -4.496430|   -6.113533|
|        1243|   -6.115208|   -4.579798|   -4.497409|   -6.114211|
|        1244|   -6.116420|   -4.577094|   -4.498411|   -6.115357|
|        1245|   -6.117718|   -4.574122|   -4.499428|   -6.116943|
|        1246|   -6.119107|   -4.570877|   -4.500469|   -6.118910|
|        1247|   -6.120595|   -4.567367|   -4.501535|   -6.121185|
|        1248|   -6.122183|   -4.563605|   -4.502623|   -6.123641|
|        1249|   -6.123872|   -4.559605|   -4.503728|   -6.126167|
|        1250|   -6.125653|   -4.555371|   -4.504838|   -6.128669|
|        1251|   -6.127520|   -4.550920|   -4.505946|   -6.131075|
|        1252|   -6.129466|   -4.546265|   -4.507045|   -6.133352|
|        1253|   -6.131488|   -4.541430|   -4.508126|   -6.135476|
|        1254|   -6.133582|   -4.536428|   -4.509182|   -6.137464|
|        1255|   -6.135743|   -4.531278|   -4.510204|   -6.139382|
|        1256|   -6.137964|   -4.526005|   -4.511178|   -6.141267|
|        1257|   -6.140239|   -4.520633|   -4.512087|   -6.143159|
|        1258|   -6.142566|   -4.515186|   -4.512911|   -6.145094|
|        1259|   -6.144939|   -4.509683|   -4.513619|   -6.147099|
|        1260|   -6.147351|   -4.504162|   -4.514182|   -6.149209|
|        1261|   -6.149795|   -4.498647|   -4.514577|   -6.151449|
|        1262|   -6.152266|   -4.493158|   -4.514780|   -6.153824|
|        1263|   -6.154760|   -4.487725|   -4.514777|   -6.156329|
|        1264|   -6.157269|   -4.482366|   -4.514551|   -6.158936|
|        1265|   -6.159792|   -4.477103|   -4.514078|   -6.161634|
|        1266|   -6.162327|   -4.471927|   -4.513341|   -6.164445|
|        1267|   -6.164868|   -4.466842|   -4.512305|   -6.167320|
|        1268|   -6.167413|   -4.461877|   -4.510923|   -6.170319|
|        1269|   -6.169944|   -4.457043|   -4.509153|   -6.173393|
|        1270|   -6.172460|   -4.452328|   -4.506997|   -6.176523|
|        1271|   -6.174965|   -4.447698|   -4.504492|   -6.179713|
|        1272|   -6.177456|   -4.443157|   -4.501724|   -6.182992|
|        1273|   -6.179926|   -4.438712|   -4.498750|   -6.186420|
|        1274|   -6.182366|   -4.434374|   -4.495624|   -6.190012|
|        1275|   -6.184780|   -4.430173|   -4.492382|   -6.193791|
|        1276|   -6.187190|   -4.426147|   -4.489067|   -6.197755|
|        1277|   -6.189616|   -4.422335|   -4.485697|   -6.201942|
