scsub> Executing:  'cd /home/hem1dev/Codes/SU2_Github_Mark_Test/SU2/Venturi'


WARNING: CONV_CRITERIA is deprecated. SU2 will choose the criteria automatically based on the CONV_FIELD.
That is, RESIDUAL for any RMS_* BGS_* value, and CAUCHY for coefficients such as DRAG etc.


-------------------------------------------------------------------------
|    ___ _   _ ___                                                      |
|   / __| | | |_  )   Release 7.1.1 "Blackbird"                         |
|   \__ \ |_| |/ /                                                      |
|   |___/\___//___|   Suite (Computational Fluid Dynamics Code)         |
|                                                                       |
-------------------------------------------------------------------------
| SU2 Project Website: https://su2code.github.io                        |
|                                                                       |
| The SU2 Project is maintained by the SU2 Foundation                   |
| (http://su2foundation.org)                                            |
-------------------------------------------------------------------------
| Copyright 2012-2021, SU2 Contributors                                 |
|                                                                       |
| SU2 is free software; you can redistribute it and/or                  |
| modify it under the terms of the GNU Lesser General Public            |
| License as published by the Free Software Foundation; either          |
| version 2.1 of the License, or (at your option) any later version.    |
|                                                                       |
| SU2 is distributed in the hope that it will be useful,                |
| but WITHOUT ANY WARRANTY; without even the implied warranty of        |
| MERCHANTABILITY or FITNESS FOR A PARTICULAR PURPOSE. See the GNU      |
| Lesser General Public License for more details.                       |
|                                                                       |
| You should have received a copy of the GNU Lesser General Public      |
| License along with SU2. If not, see <http://www.gnu.org/licenses/>.   |
-------------------------------------------------------------------------


WARNING: CONV_CRITERIA is deprecated. SU2 will choose the criteria automatically based on the CONV_FIELD.
That is, RESIDUAL for any RMS_* BGS_* value, and CAUCHY for coefficients such as DRAG etc.


Parsing config file for zone 0


WARNING: CONV_CRITERIA is deprecated. SU2 will choose the criteria automatically based on the CONV_FIELD.
That is, RESIDUAL for any RMS_* BGS_* value, and CAUCHY for coefficients such as DRAG etc.


----------------- Physical Case Definition ( Zone 0 ) -------------------
Incompressible Laminar Navier-Stokes' equations.
No restart solution, use the values at infinity (freestream).
Dimensional simulation.
The reference area is 1 m^2.
The semi-span will be computed using the max y(3D) value.
The reference length is 1 m.
Input mesh file name: c6_cms_venturi.cgns

--------------- Space Numerical Integration ( Zone 0 ) ------------------
Flux difference splitting (FDS) upwind scheme for the flow inviscid terms.
Second order integration in space, with slope limiter.
No slope-limiting method. 
Average of gradients with correction (viscous flow terms).
Gradient for upwind reconstruction: inverse-distance weighted Least-Squares.
Gradient for viscous and source terms: inverse-distance weighted Least-Squares.

--------------- Time Numerical Integration  ( Zone 0 ) ------------------
Local time stepping (steady state simulation).
Euler implicit method for the flow equations.
FGMRES is used for solving the linear system.
Using a ILU(0) preconditioning.
Convergence criteria of the linear solver: 1e-08.
Max number of linear iterations: 20.
No CFL adaptation.
Courant-Friedrichs-Lewy number:      100

------------------ Convergence Criteria  ( Zone 0 ) ---------------------
Maximum number of solver subiterations: 50000.
Begin convergence monitoring at iteration 10.
Residual minimum value: 1e-10.
Cauchy series min. value: 1e-06.
Number of Cauchy elements: 100.
Begin windowed time average at iteration 0.

-------------------- Output Information ( Zone 0 ) ----------------------
Writing solution files every 5000 iterations.
Writing the convergence history file every 1 inner iterations.
Writing the screen convergence history every 1 inner iterations.
The tabular file format is CSV (.csv).
Convergence history file name: history_test.
Forces breakdown file name: forces_breakdown.dat.
Surface file name: surface_flow_venturi_mixturedensity_30kW_fine_test.
Volume file name: flow_venturi_mixturedensity_30kW_fine_test.
Restart file name: restart_venturi_mixturedensity_30kW_fine_test.dat.

------------- Config File Boundary Information ( Zone 0 ) ---------------
+-----------------------------------------------------------------------+
|                        Marker Type|                        Marker Name|
+-----------------------------------------------------------------------+
|                     Symmetry plane|                               axis|
+-----------------------------------------------------------------------+
|                     Inlet boundary|                          gas_inlet|
|                                   |                          air_inlet|
+-----------------------------------------------------------------------+
|                    Outlet boundary|                             outlet|
+-----------------------------------------------------------------------+
|                     Heat flux wall|            wall-component1-surface|
+-----------------------------------------------------------------------+

-------------------- Output Preprocessing ( Zone 0 ) --------------------
  Info: Ignoring the following screen output fields:
  RMS_PASSIVE_SCALAR
Screen output fields: INNER_ITER, RMS_PRESSURE, RMS_VELOCITY-X, RMS_VELOCITY-Y
History output group(s): RMS_RES, AERO_COEFF, FLOW_COEFF
Ignoring Convergence Field(s): RMS_TKE 
Convergence field(s): RMS_PRESSURE, RMS_VELOCITY-X, RMS_VELOCITY-Y
Warning: No (valid) fields chosen for time convergence monitoring. Time convergence monitoring inactive.
  Info: Ignoring the following volume output fields/groups:
  SOURCE, LOOKUP
Volume output fields: DENSITY, SOLUTION, PRIMITIVE, RESIDUAL, COORDINATES

------------------- Geometry Preprocessing ( Zone 0 ) -------------------
Reading the CGNS file: c6_cms_venturi.cgns.
CGNS file contains 1 database(s).
Database 1, Base:  cell dimension of 2, physical dimension of 2.
1 total zone(s).
Zone 1, Zone: 292948 total vertices, 295883 total elements.
Loading CoordinateX values into linear partitions.
Loading CoordinateY values into linear partitions.
Distributing connectivity across all ranks.
Number of connectivity sections is 6.
Section gas_inlet contains 51 elements of type Mixed.
Section air_inlet contains 150 elements of type Mixed.
Section outlet contains 157 elements of type Mixed.
Section axis contains 1721 elements of type Mixed.
Section component1-surface contains 290183 elements of type Mixed.
Section wall-component1-surface contains 3621 elements of type Mixed.
Loading surface section gas_inlet from file.
Loading surface section air_inlet from file.
Loading surface section outlet from file.
Loading surface section axis from file.
Loading volume section component1-surface from file.
Loading surface section wall-component1-surface from file.
Two dimensional problem.
292948 grid points before partitioning.
290183 volume elements before partitioning.
5 surface markers.
51 boundary elements in index 0 (Marker = gas_inlet).
150 boundary elements in index 1 (Marker = air_inlet).
157 boundary elements in index 2 (Marker = outlet).
1721 boundary elements in index 3 (Marker = axis).
3621 boundary elements in index 4 (Marker = wall-component1-surface).
Executing the partitioning functions.
Building the graph adjacency structure.
Calling ParMETIS... graph partitioning complete (13661 edge cuts).
Distributing ParMETIS coloring.
Rebalancing vertices.
Rebalancing volume element connectivity.
Rebalancing markers and surface elements.
320615 vertices including ghost points. 
303880 interior elements including halo cells. 
174 triangles.
303706 quadrilaterals.
Establishing MPI communication patterns.
Setting point connectivity.
Renumbering points (Reverse Cuthill McKee Ordering).
Recomputing point connectivity.
Setting element connectivity.
Checking the numerical grid orientation.
All volume elements are correctly orientend.
All surface elements are correctly orientend.
Identifying edges and vertices.
Setting the control volume structure.
Area of the computational grid: 0.00286003.
Searching for the closest normal neighbors to the surfaces.
Storing a mapping from global to local point index.
Compute the surface curvature.
Max K: 25766.3. Mean K: 66.0693. Standard deviation K: 1007.76.
Checking for periodicity.
Computing mesh quality statistics for the dual control volumes.
+--------------------------------------------------------------+
|           Mesh Quality Metric|        Minimum|        Maximum|
+--------------------------------------------------------------+
|    Orthogonality Angle (deg.)|        45.2115|             90|
|     CV Face Area Aspect Ratio|              1|        10.3208|
|           CV Sub-Volume Ratio|              1|        9.85984|
+--------------------------------------------------------------+
Finding max control volume width.
Communicating number of neighbors.
Wetted area = 0 m^2.
Area projection in the x-plane = 0 m, y-plane = 0 m.
Max. coordinate in the x-direction = -1e+10 m, y-direction = -1e+10 m.
Min. coordinate in the x-direction = 1e+10 m, y-direction = 1e+10 m.
Checking if Euler & Symmetry markers are straight/plane:
Boundary marker axis is a single straight.
Computing wall distances.

-------------------- Solver Preprocessing ( Zone 0 ) --------------------
Incompressible flow: rho_ref, vel_ref, temp_ref, p_ref
are set to 1.0 in order to perform a dimensional calculation.
Force coefficients computed using initial values.
The reference area for force coeffs. is 1 m^2.
The reference length for force coeffs. is 1 m.
The pressure is decomposed into thermodynamic and dynamic components.
The initial value of the dynamic pressure is 0.
Mach number: 0, computed using fluid speed of sound.
For external flows, the initial state is imposed at the far-field.
Angle of attack (deg): 0, computed using the initial velocity.
Side slip angle (deg): 0, computed using the initial velocity.
Reynolds number per meter: inf, computed using initial values.
Reynolds number is a byproduct of inputs only (not used internally).
SI units only. The grid should be dimensional (meters).
Energy equation is active and coupled for variable density.

-- Models:
+------------------------------------------------------------------------------+
|          Viscosity Model|        Conductivity Model|              Fluid Model|
+------------------------------------------------------------------------------+
|               SUTHERLAND|          CONSTANT_PRANDTL|            INC_IDEAL_GAS|
+------------------------------------------------------------------------------+
-- Fluid properties:
+------------------------------------------------------------------------------+
|                  Name|    Dim. value|    Ref. value|      Unit|Non-dim. value|
+------------------------------------------------------------------------------+
|        Ref. Viscosity|     1.716e-05|             1|   N.s/m^2|     1.716e-05|
|      Sutherland Temp.|        273.15|             1|         K|        273.15|
|     Sutherland Const.|         110.4|             1|         K|         110.4|
+------------------------------------------------------------------------------+
|        Prandtl (Lam.)|             -|             -|         -|          0.72|
|       Prandtl (Turb.)|             -|             -|         -|           0.9|
+------------------------------------------------------------------------------+
|       Spec. Heat (Cp)|        1004.7|             1|  N.m/kg.K|        1004.7|
|      Molecular weight|        16.043|             1|     g/mol|        16.043|
|          Gas Constant|       296.945|             1|  N.m/kg.K|       296.945|
|       Therm. Pressure|        106900|             1|        Pa|        106900|
+------------------------------------------------------------------------------+
-- Initial and free-stream conditions:
+------------------------------------------------------------------------------+
|                  Name|    Dim. value|    Ref. value|      Unit|Non-dim. value|
+------------------------------------------------------------------------------+
|      Dynamic Pressure|             0|             1|        Pa|             0|
|        Total Pressure|           0.6|             1|        Pa|           0.6|
|               Density|           1.2|             1|    kg/m^3|           1.2|
|           Temperature|           300|             1|         K|           300|
|            Velocity-X|             1|             1|       m/s|             1|
|            Velocity-Y|             0|             1|       m/s|             0|
|    Velocity Magnitude|             1|             1|       m/s|             1|
+------------------------------------------------------------------------------+
|             Viscosity|             0|             1|   N.s/m^2|             0|
|          Conductivity|             -|             1|   W/m^2.K|             -|
+------------------------------------------------------------------------------+
|           Mach Number|             -|             -|         -|             0|
|       Reynolds Number|             -|             -|         -|           inf|
+------------------------------------------------------------------------------+
Initialize Jacobian structure (Navier-Stokes). MG level: 0.

------------------- Numerics Preprocessing ( Zone 0 ) -------------------

----------------- Integration Preprocessing ( Zone 0 ) ------------------

------------------- Iteration Preprocessing ( Zone 0 ) ------------------
Euler/Navier-Stokes/RANS fluid iteration.

------------------------------ Begin Solver -----------------------------

Simulation Run using the Single-zone Driver
+---------------------------------------------------+
|  Inner_Iter|      rms[P]|      rms[U]|      rms[V]|
+---------------------------------------------------+
|           0|   -4.752486|   -4.482865|   -4.000289|
|           1|   -5.189299|   -4.307117|   -4.085202|
|           2|   -5.305032|   -4.478525|   -4.123046|
|           3|   -5.534952|   -4.702516|   -4.489524|
|           4|   -5.670689|   -4.854651|   -4.618326|
|           5|   -5.615178|   -4.860750|   -4.670055|
|           6|   -5.660556|   -4.823367|   -4.713395|
|           7|   -5.658168|   -4.790004|   -4.627350|
|           8|   -5.623070|   -4.760088|   -4.497252|
|           9|   -5.596859|   -4.732160|   -4.380623|
|          10|   -5.579781|   -4.704765|   -4.296869|
|          11|   -5.575644|   -4.677367|   -4.263407|
|          12|   -5.587922|   -4.650538|   -4.262217|
|          13|   -5.607844|   -4.624332|   -4.272870|
|          14|   -5.625390|   -4.598015|   -4.285217|
|          15|   -5.637798|   -4.571329|   -4.292562|
|          16|   -5.645908|   -4.544538|   -4.290596|
|          17|   -5.650712|   -4.517939|   -4.279962|
|          18|   -5.653406|   -4.491643|   -4.264506|
|          19|   -5.655601|   -4.465708|   -4.248073|
|          20|   -5.658375|   -4.440269|   -4.233002|
|          21|   -5.661898|   -4.415567|   -4.220073|
|          22|   -5.665758|   -4.391804|   -4.208921|
|          23|   -5.669795|   -4.369132|   -4.199003|
|          24|   -5.673599|   -4.347517|   -4.189451|
|          25|   -5.677048|   -4.326890|   -4.179832|
|          26|   -5.680231|   -4.307163|   -4.168716|
|          27|   -5.683195|   -4.288313|   -4.158109|
|          28|   -5.686154|   -4.270344|   -4.148404|
|          29|   -5.689147|   -4.253120|   -4.139200|
|          30|   -5.692505|   -4.236574|   -4.131627|
|          31|   -5.695597|   -4.220483|   -4.124542|
|          32|   -5.699043|   -4.204804|   -4.118078|
|          33|   -5.702476|   -4.189384|   -4.110270|
|          34|   -5.706017|   -4.174204|   -4.101529|
|          35|   -5.709424|   -4.159290|   -4.092352|
|          36|   -5.712815|   -4.144737|   -4.083085|
|          37|   -5.716101|   -4.130615|   -4.073831|
|          38|   -5.719327|   -4.116982|   -4.064788|
|          39|   -5.722525|   -4.103833|   -4.056083|
|          40|   -5.725892|   -4.091169|   -4.047986|
|          41|   -5.729338|   -4.078913|   -4.040381|
|          42|   -5.732867|   -4.067004|   -4.033227|
|          43|   -5.736476|   -4.055419|   -4.026483|
|          44|   -5.740157|   -4.044186|   -4.020189|
|          45|   -5.743912|   -4.033334|   -4.014452|
|          46|   -5.747707|   -4.022875|   -4.009336|
|          47|   -5.751525|   -4.012821|   -4.004882|
|          48|   -5.755367|   -4.003150|   -4.001076|
|          49|   -5.759219|   -3.993796|   -3.997798|
|          50|   -5.763063|   -3.984633|   -3.994800|
|          51|   -5.766900|   -3.975521|   -3.991790|
|          52|   -5.770709|   -3.966342|   -3.988434|
|          53|   -5.774463|   -3.956934|   -3.984389|
|          54|   -5.778130|   -3.947054|   -3.979365|
|          55|   -5.781670|   -3.936526|   -3.973263|
|          56|   -5.785148|   -3.925387|   -3.966223|
|          57|   -5.788500|   -3.914001|   -3.958522|
|          58|   -5.791808|   -3.902953|   -3.950905|
|          59|   -5.795136|   -3.892777|   -3.943936|
|          60|   -5.798418|   -3.883606|   -3.937744|
|          61|   -5.801689|   -3.875043|   -3.932475|
|          62|   -5.804910|   -3.866736|   -3.928033|
|          63|   -5.808040|   -3.858656|   -3.924085|
|          64|   -5.811109|   -3.850730|   -3.920481|
|          65|   -5.813933|   -3.842916|   -3.916722|
|          66|   -5.816783|   -3.834972|   -3.913074|
|          67|   -5.819552|   -3.827386|   -3.909091|
|          68|   -5.822310|   -3.820781|   -3.904686|
|          69|   -5.825001|   -3.815295|   -3.899982|
|          70|   -5.828223|   -3.811041|   -3.896892|
|          71|   -5.831628|   -3.808102|   -3.896648|
|          72|   -5.835167|   -3.806218|   -3.898525|
|          73|   -5.838892|   -3.805277|   -3.901805|
|          74|   -5.842983|   -3.804898|   -3.906676|
|          75|   -5.847224|   -3.804831|   -3.912873|
|          76|   -5.851413|   -3.804836|   -3.919715|
|          77|   -5.855501|   -3.804505|   -3.926231|
|          78|   -5.859584|   -3.803159|   -3.931590|
|          79|   -5.863486|   -3.800093|   -3.934718|
|          80|   -5.867270|   -3.794761|   -3.935344|
|          81|   -5.871048|   -3.787545|   -3.934602|
|          82|   -5.874999|   -3.779852|   -3.934719|
|          83|   -5.879326|   -3.772890|   -3.937290|
|          84|   -5.884142|   -3.766827|   -3.942196|
|          85|   -5.889561|   -3.761595|   -3.947542|
|          86|   -5.895603|   -3.758071|   -3.951118|
|          87|   -5.902009|   -3.756968|   -3.954619|
|          88|   -5.908606|   -3.757795|   -3.959805|
|          89|   -5.915626|   -3.759358|   -3.967233|
|          90|   -5.922865|   -3.760085|   -3.975135|
|          91|   -5.930259|   -3.758696|   -3.980861|
|          92|   -5.937568|   -3.754811|   -3.982260|
|          93|   -5.944911|   -3.749119|   -3.979935|
|          94|   -5.952457|   -3.742917|   -3.976334|
|          95|   -5.960412|   -3.737338|   -3.973562|
|          96|   -5.968827|   -3.732930|   -3.972699|
|          97|   -5.977819|   -3.729758|   -3.974071|
|          98|   -5.987283|   -3.727523|   -3.977610|
|          99|   -5.997023|   -3.725791|   -3.982114|
|         100|   -6.006995|   -3.724069|   -3.986098|
|         101|   -6.017201|   -3.721918|   -3.988160|
|         102|   -6.027540|   -3.718928|   -3.987418|
|         103|   -6.037862|   -3.714608|   -3.983763|
|         104|   -6.048293|   -3.708880|   -3.977564|
|         105|   -6.058862|   -3.702091|   -3.969616|
|         106|   -6.069602|   -3.694809|   -3.960627|
|         107|   -6.080590|   -3.687614|   -3.951721|
|         108|   -6.092036|   -3.680978|   -3.942905|
|         109|   -6.103509|   -3.674799|   -3.934199|
|         110|   -6.114398|   -3.668840|   -3.925741|
|         111|   -6.125222|   -3.663318|   -3.917387|
|         112|   -6.135826|   -3.658665|   -3.909747|
|         113|   -6.147055|   -3.654997|   -3.903841|
|         114|   -6.157933|   -3.652019|   -3.898856|
|         115|   -6.168329|   -3.649108|   -3.895149|
|         116|   -6.178768|   -3.646228|   -3.892491|
|         117|   -6.189000|   -3.643547|   -3.890201|
|         118|   -6.198018|   -3.641103|   -3.888657|
|         119|   -6.205329|   -3.638704|   -3.887690|
|         120|   -6.210818|   -3.636430|   -3.885809|
|         121|   -6.214395|   -3.634791|   -3.882277|
|         122|   -6.216373|   -3.634668|   -3.878745|
|         123|   -6.217270|   -3.636457|   -3.876860|
|         124|   -6.218080|   -3.639613|   -3.876248|
|         125|   -6.219499|   -3.642741|   -3.875898|
|         126|   -6.221157|   -3.644788|   -3.875776|
|         127|   -6.222011|   -3.645237|   -3.876812|
|         128|   -6.221731|   -3.644806|   -3.879415|
|         129|   -6.220320|   -3.644775|   -3.881910|
|         130|   -6.217972|   -3.645528|   -3.882501|
|         131|   -6.214269|   -3.646809|   -3.881461|
|         132|   -6.208866|   -3.648220|   -3.879578|
|         133|   -6.202229|   -3.649564|   -3.877025|
|         134|   -6.194685|   -3.650972|   -3.874090|
|         135|   -6.186283|   -3.652340|   -3.871740|
|         136|   -6.177139|   -3.653495|   -3.870317|
|         137|   -6.167553|   -3.654538|   -3.869232|
|         138|   -6.157631|   -3.655845|   -3.867438|
|         139|   -6.147335|   -3.657635|   -3.865095|
|         140|   -6.136567|   -3.659703|   -3.862827|
|         141|   -6.125526|   -3.661882|   -3.860826|
|         142|   -6.114358|   -3.663878|   -3.858830|
|         143|   -6.103100|   -3.665561|   -3.856159|
|         144|   -6.091697|   -3.666953|   -3.852802|
|         145|   -6.080252|   -3.668033|   -3.848573|
|         146|   -6.068728|   -3.668416|   -3.842797|
|         147|   -6.056953|   -3.667521|   -3.834903|
|         148|   -6.044637|   -3.664985|   -3.824578|
|         149|   -6.032142|   -3.660699|   -3.812024|
|         150|   -6.019811|   -3.654850|   -3.797159|
|         151|   -6.007713|   -3.647675|   -3.779899|
|         152|   -5.995413|   -3.639054|   -3.760867|
|         153|   -5.982853|   -3.628693|   -3.741051|
|         154|   -5.970408|   -3.616797|   -3.721170|
|         155|   -5.958270|   -3.604050|   -3.701676|
|         156|   -5.946521|   -3.591169|   -3.683153|
|         157|   -5.935250|   -3.578478|   -3.666199|
|         158|   -5.924462|   -3.566017|   -3.650897|
|         159|   -5.914272|   -3.554103|   -3.636423|
|         160|   -5.905807|   -3.543479|   -3.622499|
|         161|   -5.899990|   -3.535202|   -3.612394|
|         162|   -5.894291|   -3.530093|   -3.605371|
|         163|   -5.890870|   -3.528473|   -3.603314|
|         164|   -5.887059|   -3.529921|   -3.605584|
|         165|   -5.883389|   -3.533755|   -3.610437|
|         166|   -5.880553|   -3.539305|   -3.618026|
|         167|   -5.877528|   -3.546124|   -3.627115|
|         168|   -5.874669|   -3.553785|   -3.636604|
|         169|   -5.872064|   -3.562003|   -3.643551|
|         170|   -5.871100|   -3.570326|   -3.650010|
|         171|   -5.870209|   -3.578629|   -3.655097|
|         172|   -5.870226|   -3.586671|   -3.658972|
|         173|   -5.870885|   -3.594048|   -3.662515|
|         174|   -5.871872|   -3.600323|   -3.665761|
|         175|   -5.872987|   -3.604894|   -3.668399|
|         176|   -5.874018|   -3.607136|   -3.669885|
|         177|   -5.874747|   -3.606508|   -3.669514|
|         178|   -5.874978|   -3.602660|   -3.666491|
|         179|   -5.874623|   -3.595568|   -3.660267|
|         180|   -5.873725|   -3.585667|   -3.650765|
|         181|   -5.872517|   -3.573908|   -3.638601|
|         182|   -5.871374|   -3.561668|   -3.625060|
|         183|   -5.870603|   -3.550730|   -3.611693|
|         184|   -5.870338|   -3.542659|   -3.600064|
|         185|   -5.870605|   -3.538101|   -3.591590|
|         186|   -5.871344|   -3.536896|   -3.586991|
|         187|   -5.872495|   -3.538354|   -3.586096|
|         188|   -5.874019|   -3.541482|   -3.588106|
|         189|   -5.875892|   -3.545230|   -3.591954|
|         190|   -5.878070|   -3.548660|   -3.596536|
|         191|   -5.880454|   -3.551120|   -3.600837|
|         192|   -5.882919|   -3.552364|   -3.604054|
|         193|   -5.885337|   -3.552524|   -3.605745|
|         194|   -5.887675|   -3.551895|   -3.605886|
|         195|   -5.889989|   -3.550734|   -3.604776|
|         196|   -5.892377|   -3.549256|   -3.602838|
|         197|   -5.894911|   -3.547642|   -3.600478|
|         198|   -5.897598|   -3.546001|   -3.597982|
|         199|   -5.900403|   -3.544401|   -3.595539|
|         200|   -5.903284|   -3.542876|   -3.593274|
|         201|   -5.906220|   -3.541422|   -3.591281|
|         202|   -5.909217|   -3.540020|   -3.589613|
|         203|   -5.912280|   -3.538646|   -3.588269|
|         204|   -5.915396|   -3.537293|   -3.587223|
|         205|   -5.918525|   -3.535927|   -3.586345|
|         206|   -5.921635|   -3.534512|   -3.585528|
|         207|   -5.924698|   -3.533000|   -3.584672|
|         208|   -5.927693|   -3.531296|   -3.583650|
|         209|   -5.930638|   -3.529282|   -3.582372|
|         210|   -5.933511|   -3.526880|   -3.580766|
|         211|   -5.936265|   -3.524052|   -3.578774|
|         212|   -5.938936|   -3.520801|   -3.576409|
|         213|   -5.941523|   -3.517160|   -3.573665|
|         214|   -5.944040|   -3.513227|   -3.570600|
|         215|   -5.946543|   -3.509133|   -3.567410|
|         216|   -5.948865|   -3.505060|   -3.564158|
|         217|   -5.951294|   -3.501139|   -3.561168|
|         218|   -5.953796|   -3.497400|   -3.558495|
|         219|   -5.956531|   -3.493774|   -3.556210|
|         220|   -5.959365|   -3.490136|   -3.554134|
|         221|   -5.962355|   -3.486316|   -3.552136|
|         222|   -5.965472|   -3.482170|   -3.550050|
|         223|   -5.968669|   -3.477634|   -3.547752|
|         224|   -5.971875|   -3.472726|   -3.545221|
|         225|   -5.975052|   -3.467489|   -3.542456|
|         226|   -5.978182|   -3.461997|   -3.539442|
|         227|   -5.981266|   -3.456300|   -3.536257|
|         228|   -5.984329|   -3.450410|   -3.532945|
|         229|   -5.987400|   -3.444314|   -3.529506|
|         230|   -5.990489|   -3.437977|   -3.525944|
|         231|   -5.993603|   -3.431370|   -3.522236|
|         232|   -5.996725|   -3.424446|   -3.518356|
|         233|   -5.999857|   -3.417189|   -3.514288|
|         234|   -6.002996|   -3.409601|   -3.509983|
|         235|   -6.006143|   -3.401714|   -3.505390|
|         236|   -6.009299|   -3.393576|   -3.500460|
|         237|   -6.012465|   -3.385238|   -3.495133|
|         238|   -6.015642|   -3.376784|   -3.489346|
|         239|   -6.018832|   -3.368301|   -3.483059|
|         240|   -6.022027|   -3.359886|   -3.476231|
|         241|   -6.025227|   -3.351653|   -3.468847|
|         242|   -6.028419|   -3.343728|   -3.460973|
|         243|   -6.031591|   -3.336253|   -3.452761|
|         244|   -6.034770|   -3.329368|   -3.444466|
|         245|   -6.038015|   -3.323205|   -3.436408|
|         246|   -6.041444|   -3.317868|   -3.428966|
|         247|   -6.045126|   -3.313440|   -3.422500|
|         248|   -6.048918|   -3.309978|   -3.417272|
|         249|   -6.052978|   -3.307467|   -3.413530|
|         250|   -6.057337|   -3.305866|   -3.411371|
|         251|   -6.061987|   -3.305084|   -3.410765|
|         252|   -6.067009|   -3.304984|   -3.411600|
|         253|   -6.072375|   -3.305408|   -3.413649|
|         254|   -6.078061|   -3.306167|   -3.416656|
|         255|   -6.083989|   -3.307076|   -3.420311|
|         256|   -6.090059|   -3.307925|   -3.424340|
|         257|   -6.096128|   -3.308529|   -3.428436|
|         258|   -6.102104|   -3.308705|   -3.432336|
|         259|   -6.107900|   -3.308287|   -3.435786|
|         260|   -6.113434|   -3.307124|   -3.438548|
|         261|   -6.118607|   -3.305082|   -3.440406|
|         262|   -6.123331|   -3.302072|   -3.441205|
|         263|   -6.127525|   -3.298049|   -3.440867|
|         264|   -6.131128|   -3.293043|   -3.439376|
|         265|   -6.134083|   -3.287144|   -3.436846|
|         266|   -6.136449|   -3.280541|   -3.433487|
|         267|   -6.138299|   -3.273457|   -3.429567|
|         268|   -6.139841|   -3.266175|   -3.425414|
|         269|   -6.141229|   -3.258983|   -3.421325|
|         270|   -6.142705|   -3.252136|   -3.417572|
|         271|   -6.144412|   -3.245886|   -3.414385|
|         272|   -6.146745|   -3.240447|   -3.411837|
|         273|   -6.149800|   -3.235943|   -3.409951|
|         274|   -6.153692|   -3.232458|   -3.408733|
|         275|   -6.158696|   -3.230058|   -3.408137|
|         276|   -6.164910|   -3.228714|   -3.408030|
|         277|   -6.172454|   -3.228427|   -3.408204|
|         278|   -6.181537|   -3.229044|   -3.408621|
|         279|   -6.192090|   -3.230380|   -3.409221|
|         280|   -6.204213|   -3.232220|   -3.409870|
|         281|   -6.217341|   -3.234213|   -3.410634|
|         282|   -6.230364|   -3.235977|   -3.411393|
|         283|   -6.241600|   -3.237114|   -3.412198|
|         284|   -6.249994|   -3.237268|   -3.412439|
|         285|   -6.254030|   -3.236059|   -3.411902|
|         286|   -6.253257|   -3.233131|   -3.410071|
|         287|   -6.248221|   -3.228409|   -3.406426|
|         288|   -6.240349|   -3.222105|   -3.400877|
|         289|   -6.230272|   -3.214652|   -3.393920|
|         290|   -6.219773|   -3.206701|   -3.385909|
|         291|   -6.209372|   -3.198899|   -3.377273|
|         292|   -6.200060|   -3.191712|   -3.368586|
|         293|   -6.192899|   -3.185438|   -3.359970|
|         294|   -6.187888|   -3.180146|   -3.351387|
|         295|   -6.185170|   -3.175684|   -3.342746|
|         296|   -6.184674|   -3.171770|   -3.333575|
|         297|   -6.186148|   -3.167998|   -3.323380|
|         298|   -6.188802|   -3.163837|   -3.311749|
|         299|   -6.191907|   -3.158829|   -3.298473|
|         300|   -6.194196|   -3.152721|   -3.283507|
|         301|   -6.194229|   -3.145581|   -3.267244|
|         302|   -6.190996|   -3.137918|   -3.250672|
|         303|   -6.182731|   -3.130579|   -3.234937|
|         304|   -6.169258|   -3.124557|   -3.221542|
|         305|   -6.151422|   -3.120504|   -3.211597|
|         306|   -6.131469|   -3.118309|   -3.205797|
|         307|   -6.111505|   -3.117002|   -3.203791|
|         308|   -6.091977|   -3.114891|   -3.204258|
|         309|   -6.071425|   -3.110030|   -3.204939|
|         310|   -6.048372|   -3.100817|   -3.203550|
|         311|   -6.021988|   -3.086909|   -3.198961|
|         312|   -5.993757|   -3.069632|   -3.191473|
|         313|   -5.965904|   -3.050750|   -3.182451|
|         314|   -5.940416|   -3.031896|   -3.172971|
|         315|   -5.917443|   -3.014186|   -3.163057|
|         316|   -5.898065|   -2.998183|   -3.152965|
|         317|   -5.880660|   -2.984098|   -3.143683|
|         318|   -5.866621|   -2.971971|   -3.135499|
|         319|   -5.854956|   -2.961636|   -3.127194|
|         320|   -5.844144|   -2.952236|   -3.116949|
|         321|   -5.832457|   -2.943179|   -3.104369|
|         322|   -5.820306|   -2.934122|   -3.090338|
|         323|   -5.809208|   -2.924816|   -3.076824|
|         324|   -5.799454|   -2.915168|   -3.064870|
|         325|   -5.790689|   -2.904866|   -3.054219|
|         326|   -5.781678|   -2.893654|   -3.044052|
|         327|   -5.769835|   -2.881681|   -3.033008|
|         328|   -5.754383|   -2.869612|   -3.019455|
|         329|   -5.736894|   -2.858651|   -3.003628|
|         330|   -5.720100|   -2.850021|   -2.987103|
|         331|   -5.705797|   -2.844326|   -2.972548|
|         332|   -5.692164|   -2.841364|   -2.962193|
|         333|   -5.679344|   -2.840350|   -2.956795|
|         334|   -5.669864|   -2.840811|   -2.954534|
|         335|   -5.677757|   -2.843079|   -2.956221|
|         336|   -5.690696|   -2.845923|   -2.958284|
|         337|   -5.697753|   -2.848650|   -2.958151|
|         338|   -5.706034|   -2.851188|   -2.957786|
|         339|   -5.707112|   -2.853224|   -2.956318|
|         340|   -5.707593|   -2.855396|   -2.955709|
|         341|   -5.706203|   -2.857979|   -2.956374|
|         342|   -5.705386|   -2.861615|   -2.959522|
|         343|   -5.704604|   -2.866490|   -2.965424|
|         344|   -5.708632|   -2.872430|   -2.974013|
|         345|   -5.716642|   -2.878768|   -2.984383|
|         346|   -5.715164|   -2.885076|   -2.993849|
|         347|   -5.704385|   -2.889879|   -3.002119|
|         348|   -5.698539|   -2.891779|   -3.012682|
|         349|   -5.694454|   -2.888297|   -3.023856|
|         350|   -5.671999|   -2.870652|   -3.025336|
|         351|   -5.610192|   -2.833641|   -3.007071|
|         352|   -5.503341|   -2.783364|   -2.966309|
|         353|   -5.455020|   -2.741657|   -2.926780|
|         354|   -5.457978|   -2.715405|   -2.901489|
|         355|   -5.464014|   -2.699801|   -2.881144|
|         356|   -5.474045|   -2.693691|   -2.868516|
|         357|   -5.483074|   -2.692295|   -2.860156|
|         358|   -5.498652|   -2.696036|   -2.856157|
|         359|   -5.518926|   -2.703165|   -2.855541|
|         360|   -5.546106|   -2.713182|   -2.858403|
|         361|   -5.578642|   -2.724727|   -2.863657|
|         362|   -5.615461|   -2.737168|   -2.870250|
|         363|   -5.650908|   -2.749949|   -2.876848|
|         364|   -5.681959|   -2.762906|   -2.883167|
|         365|   -5.702402|   -2.776495|   -2.889856|
|         366|   -5.707615|   -2.791815|   -2.897674|
|         367|   -5.703941|   -2.810536|   -2.907895|
|         368|   -5.697808|   -2.834090|   -2.921638|
|         369|   -5.707234|   -2.861883|   -2.939345|
|         370|   -5.715742|   -2.891205|   -2.960034|
|         371|   -5.716112|   -2.918665|   -2.981199|
|         372|   -5.710855|   -2.940523|   -3.000320|
|         373|   -5.698918|   -2.953932|   -3.015266|
|         374|   -5.678529|   -2.958323|   -3.024712|
|         375|   -5.651678|   -2.955999|   -3.029314|
|         376|   -5.621164|   -2.950625|   -3.030558|
|         377|   -5.593946|   -2.945976|   -3.030990|
|         378|   -5.577959|   -2.946007|   -3.033691|
|         379|   -5.575771|   -2.953205|   -3.033695|
|         380|   -5.616107|   -2.967385|   -3.047515|
|         381|   -5.626958|   -2.980154|   -3.052036|
|         382|   -5.638725|   -2.994061|   -3.060242|
|         383|   -5.637339|   -3.005434|   -3.064952|
|         384|   -5.644403|   -3.015021|   -3.071127|
|         385|   -5.653860|   -3.022362|   -3.078383|
|         386|   -5.657533|   -3.028575|   -3.085248|
|         387|   -5.663360|   -3.033883|   -3.092920|
|         388|   -5.668185|   -3.038836|   -3.100625|
|         389|   -5.674934|   -3.044160|   -3.108788|
|         390|   -5.684394|   -3.050557|   -3.117433|
|         391|   -5.696162|   -3.058539|   -3.126580|
|         392|   -5.709896|   -3.068071|   -3.136184|
|         393|   -5.724067|   -3.078441|   -3.146054|
|         394|   -5.736842|   -3.088638|   -3.155882|
|         395|   -5.747166|   -3.097536|   -3.165331|
|         396|   -5.754260|   -3.104098|   -3.173845|
|         397|   -5.757861|   -3.107176|   -3.180542|
|         398|   -5.757982|   -3.106011|   -3.184212|
|         399|   -5.753684|   -3.101119|   -3.183926|
|         400|   -5.745630|   -3.094829|   -3.180653|
|         401|   -5.738478|   -3.090278|   -3.177419|
|         402|   -5.738026|   -3.089839|   -3.177628|
|         403|   -5.744053|   -3.094143|   -3.182647|
|         404|   -5.753475|   -3.102222|   -3.192217|
|         405|   -5.762419|   -3.112225|   -3.204299|
|         406|   -5.771019|   -3.122573|   -3.217155|
|         407|   -5.778683|   -3.132421|   -3.229360|
|         408|   -5.786513|   -3.141426|   -3.240876|
|         409|   -5.793677|   -3.149446|   -3.251618|
|         410|   -5.800045|   -3.156570|   -3.261394|
|         411|   -5.806399|   -3.162960|   -3.270204|
|         412|   -5.813373|   -3.168616|   -3.277890|
|         413|   -5.819965|   -3.173198|   -3.283889|
|         414|   -5.826266|   -3.176274|   -3.287655|
|         415|   -5.831425|   -3.177784|   -3.288916|
|         416|   -5.835279|   -3.178075|   -3.288066|
|         417|   -5.837192|   -3.177560|   -3.285558|
|         418|   -5.837754|   -3.176486|   -3.281924|
|         419|   -5.837098|   -3.174923|   -3.277451|
|         420|   -5.834897|   -3.172902|   -3.272324|
|         421|   -5.831837|   -3.170457|   -3.266824|
|         422|   -5.827504|   -3.167628|   -3.260967|
|         423|   -5.823437|   -3.164484|   -3.254993|
|         424|   -5.818977|   -3.161105|   -3.248825|
|         425|   -5.814165|   -3.157620|   -3.242421|
|         426|   -5.809325|   -3.154242|   -3.235403|
|         427|   -5.809231|   -3.151590|   -3.228510|
|         428|   -5.808807|   -3.149523|   -3.221425|
|         429|   -5.809853|   -3.148604|   -3.214751|
|         430|   -5.810456|   -3.149094|   -3.208731|
|         431|   -5.811663|   -3.151600|   -3.203898|
|         432|   -5.813320|   -3.156344|   -3.200606|
|         433|   -5.815751|   -3.163242|   -3.199008|
|         434|   -5.818734|   -3.171887|   -3.199072|
|         435|   -5.822237|   -3.181775|   -3.200750|
|         436|   -5.826000|   -3.192429|   -3.203828|
|         437|   -5.830253|   -3.203288|   -3.207963|
|         438|   -5.839999|   -3.213758|   -3.213367|
|         439|   -5.847462|   -3.222980|   -3.219518|
|         440|   -5.855752|   -3.230839|   -3.226498|
|         441|   -5.862104|   -3.236892|   -3.233915|
|         442|   -5.867717|   -3.241271|   -3.241625|
|         443|   -5.871879|   -3.244156|   -3.249262|
|         444|   -5.874627|   -3.246102|   -3.256517|
|         445|   -5.876976|   -3.247713|   -3.263200|
|         446|   -5.879469|   -3.249534|   -3.269341|
|         447|   -5.882259|   -3.251982|   -3.275045|
|         448|   -5.886052|   -3.255281|   -3.280545|
|         449|   -5.890878|   -3.259391|   -3.286071|
|         450|   -5.896541|   -3.264140|   -3.291814|
|         451|   -5.902249|   -3.269323|   -3.297838|
|         452|   -5.908028|   -3.274786|   -3.304135|
|         453|   -5.912905|   -3.280444|   -3.310634|
|         454|   -5.916693|   -3.286288|   -3.317281|
|         455|   -5.920328|   -3.292374|   -3.324083|
|         456|   -5.922925|   -3.298780|   -3.330990|
|         457|   -5.924870|   -3.305458|   -3.337916|
|         458|   -5.925851|   -3.312125|   -3.344722|
|         459|   -5.925732|   -3.318512|   -3.351246|
|         460|   -5.924780|   -3.324507|   -3.357503|
|         461|   -5.922727|   -3.330029|   -3.363443|
|         462|   -5.921109|   -3.334928|   -3.369226|
|         463|   -5.919724|   -3.339122|   -3.374799|
|         464|   -5.918820|   -3.342707|   -3.380109|
|         465|   -5.917474|   -3.345765|   -3.384848|
|         466|   -5.923367|   -3.348206|   -3.389200|
|         467|   -5.932147|   -3.350026|   -3.393046|
|         468|   -5.943172|   -3.351380|   -3.396620|
|         469|   -5.954297|   -3.352592|   -3.399798|
|         470|   -5.966680|   -3.353976|   -3.402783|
|         471|   -5.977836|   -3.355715|   -3.405553|
|         472|   -5.988391|   -3.357828|   -3.408276|
|         473|   -5.998221|   -3.360351|   -3.410734|
|         474|   -6.008297|   -3.363302|   -3.413040|
|         475|   -6.017723|   -3.366582|   -3.415502|
|         476|   -6.025990|   -3.370135|   -3.418246|
|         477|   -6.033612|   -3.373950|   -3.421213|
|         478|   -6.040841|   -3.377994|   -3.424197|
|         479|   -6.047584|   -3.382212|   -3.427033|
|         480|   -6.053620|   -3.386489|   -3.429706|
|         481|   -6.059084|   -3.390759|   -3.432409|
|         482|   -6.064183|   -3.395089|   -3.435490|
|         483|   -6.069098|   -3.399563|   -3.438986|
|         484|   -6.073571|   -3.404145|   -3.442847|
|         485|   -6.077475|   -3.408716|   -3.446773|
|         486|   -6.080641|   -3.413026|   -3.450580|
|         487|   -6.082676|   -3.416834|   -3.454029|
|         488|   -6.083791|   -3.419967|   -3.456990|
|         489|   -6.083989|   -3.422330|   -3.459459|
|         490|   -6.083041|   -3.423815|   -3.461492|
|         491|   -6.081144|   -3.424269|   -3.463107|
|         492|   -6.077516|   -3.423563|   -3.464014|
|         493|   -6.071996|   -3.421529|   -3.463762|
|         494|   -6.064104|   -3.417954|   -3.461951|
|         495|   -6.053063|   -3.412875|   -3.458409|
|         496|   -6.039182|   -3.406654|   -3.453545|
|         497|   -6.023755|   -3.400135|   -3.448250|
|         498|   -6.011123|   -3.394776|   -3.443929|
|         499|   -6.006091|   -3.392360|   -3.442922|
|         500|   -6.009108|   -3.393652|   -3.447374|
|         501|   -6.015402|   -3.398021|   -3.456528|
|         502|   -6.021492|   -3.404721|   -3.466932|
|         503|   -6.026681|   -3.413369|   -3.476056|
|         504|   -6.029481|   -3.422910|   -3.483371|
|         505|   -6.029978|   -3.431588|   -3.489146|
|         506|   -6.029388|   -3.438220|   -3.493698|
|         507|   -6.027816|   -3.442741|   -3.497567|
|         508|   -6.025471|   -3.445891|   -3.501344|
|         509|   -6.023927|   -3.448413|   -3.505240|
|         510|   -6.023459|   -3.450634|   -3.509084|
|         511|   -6.023465|   -3.452624|   -3.512775|
|         512|   -6.023406|   -3.454398|   -3.516324|
|         513|   -6.023091|   -3.456062|   -3.519799|
|         514|   -6.022553|   -3.457820|   -3.523250|
|         515|   -6.022201|   -3.459934|   -3.526657|
|         516|   -6.022803|   -3.462701|   -3.530271|
|         517|   -6.024494|   -3.466065|   -3.534333|
|         518|   -6.027008|   -3.469565|   -3.538988|
|         519|   -6.030162|   -3.472918|   -3.544264|
|         520|   -6.033937|   -3.476231|   -3.550011|
|         521|   -6.037320|   -3.479562|   -3.556015|
|         522|   -6.040848|   -3.482860|   -3.562277|
|         523|   -6.044147|   -3.485964|   -3.568581|
|         524|   -6.047235|   -3.488757|   -3.574787|
|         525|   -6.050105|   -3.491169|   -3.580753|
|         526|   -6.052554|   -3.493179|   -3.586348|
|         527|   -6.054672|   -3.494804|   -3.591549|
|         528|   -6.056560|   -3.496082|   -3.596371|
|         529|   -6.058098|   -3.497051|   -3.600798|
|         530|   -6.059369|   -3.497749|   -3.604861|
|         531|   -6.060528|   -3.498223|   -3.608596|
|         532|   -6.061466|   -3.498516|   -3.611997|
|         533|   -6.062160|   -3.498664|   -3.615107|
|         534|   -6.062839|   -3.498748|   -3.617976|
|         535|   -6.063088|   -3.498761|   -3.620553|
|         536|   -6.063324|   -3.498749|   -3.622916|
|         537|   -6.063138|   -3.498633|   -3.625013|
|         538|   -6.062961|   -3.498424|   -3.626916|
|         539|   -6.062446|   -3.498031|   -3.628549|
|         540|   -6.061730|   -3.497417|   -3.629955|
|         541|   -6.061006|   -3.496571|   -3.631125|
|         542|   -6.060014|   -3.495468|   -3.631990|
|         543|   -6.058964|   -3.494113|   -3.632599|
|         544|   -6.058106|   -3.492541|   -3.632956|
|         545|   -6.056875|   -3.490744|   -3.632941|
|         546|   -6.055638|   -3.488733|   -3.632655|
|         547|   -6.054603|   -3.486560|   -3.632105|
|         548|   -6.052932|   -3.484279|   -3.630535|
|         549|   -6.052278|   -3.481810|   -3.628635|
|         550|   -6.052202|   -3.479224|   -3.626504|
|         551|   -6.051804|   -3.476534|   -3.624013|
|         552|   -6.051697|   -3.473748|   -3.621317|
|         553|   -6.051656|   -3.470845|   -3.618373|
|         554|   -6.051379|   -3.467786|   -3.615119|
|         555|   -6.051207|   -3.464560|   -3.611672|
|         556|   -6.050976|   -3.461170|   -3.607987|
|         557|   -6.050674|   -3.457627|   -3.604062|
|         558|   -6.050447|   -3.453948|   -3.599951|
|         559|   -6.050127|   -3.450161|   -3.595630|
|         560|   -6.049755|   -3.446269|   -3.591136|
|         561|   -6.049588|   -3.442253|   -3.586597|
|         562|   -6.048982|   -3.438106|   -3.581820|
|         563|   -6.048518|   -3.433864|   -3.576935|
|         564|   -6.048240|   -3.429557|   -3.571995|
|         565|   -6.047708|   -3.425280|   -3.566839|
|         566|   -6.047457|   -3.421080|   -3.561677|
|         567|   -6.047621|   -3.416980|   -3.556673|
|         568|   -6.047956|   -3.413022|   -3.551806|
|         569|   -6.048054|   -3.409205|   -3.546981|
|         570|   -6.047710|   -3.405484|   -3.542123|
|         571|   -6.047213|   -3.401845|   -3.537281|
|         572|   -6.046811|   -3.398339|   -3.532588|
|         573|   -6.046699|   -3.395036|   -3.528140|
|         574|   -6.046984|   -3.391955|   -3.523969|
|         575|   -6.047522|   -3.389110|   -3.520020|
|         576|   -6.048248|   -3.386484|   -3.516279|
|         577|   -6.049149|   -3.384066|   -3.512775|
|         578|   -6.050160|   -3.381892|   -3.509498|
|         579|   -6.051317|   -3.380012|   -3.506435|
|         580|   -6.052696|   -3.378441|   -3.503608|
|         581|   -6.054364|   -3.377164|   -3.501058|
|         582|   -6.056348|   -3.376149|   -3.498808|
|         583|   -6.058591|   -3.375372|   -3.496828|
|         584|   -6.060962|   -3.374805|   -3.495047|
|         585|   -6.063295|   -3.374417|   -3.493362|
|         586|   -6.065494|   -3.374170|   -3.491692|
|         587|   -6.067642|   -3.374040|   -3.490009|
|         588|   -6.069613|   -3.373976|   -3.488255|
|         589|   -6.071553|   -3.373939|   -3.486516|
|         590|   -6.073358|   -3.373901|   -3.484798|
|         591|   -6.075159|   -3.373842|   -3.483177|
|         592|   -6.076873|   -3.373739|   -3.481665|
|         593|   -6.078600|   -3.373569|   -3.480304|
|         594|   -6.080400|   -3.373316|   -3.479078|
|         595|   -6.082263|   -3.372947|   -3.477968|
|         596|   -6.084269|   -3.372410|   -3.476970|
|         597|   -6.086357|   -3.371650|   -3.476034|
|         598|   -6.088463|   -3.370597|   -3.475149|
|         599|   -6.090598|   -3.369189|   -3.474298|
|         600|   -6.092767|   -3.367363|   -3.473442|
|         601|   -6.094900|   -3.365059|   -3.472496|
|         602|   -6.097217|   -3.362213|   -3.471412|
|         603|   -6.099284|   -3.358782|   -3.469975|
|         604|   -6.101811|   -3.354725|   -3.468218|
|         605|   -6.104251|   -3.350022|   -3.465943|
|         606|   -6.106985|   -3.344690|   -3.463235|
|         607|   -6.109864|   -3.338800|   -3.460096|
|         608|   -6.113357|   -3.332427|   -3.456712|
|         609|   -6.116798|   -3.325733|   -3.453048|
|         610|   -6.121396|   -3.318832|   -3.449328|
|         611|   -6.126197|   -3.311847|   -3.445423|
|         612|   -6.131511|   -3.304886|   -3.441285|
|         613|   -6.136761|   -3.298019|   -3.436714|
|         614|   -6.141782|   -3.291291|   -3.431597|
|         615|   -6.146265|   -3.284729|   -3.425885|
|         616|   -6.149982|   -3.278357|   -3.419631|
|         617|   -6.152754|   -3.272200|   -3.412983|
|         618|   -6.154593|   -3.266300|   -3.406168|
|         619|   -6.155634|   -3.260686|   -3.399484|
|         620|   -6.156531|   -3.255379|   -3.393267|
|         621|   -6.157119|   -3.250385|   -3.387630|
|         622|   -6.157626|   -3.245653|   -3.382609|
|         623|   -6.157867|   -3.241104|   -3.378123|
|         624|   -6.158264|   -3.236629|   -3.374125|
|         625|   -6.158004|   -3.232098|   -3.370349|
|         626|   -6.157268|   -3.227381|   -3.366608|
|         627|   -6.155527|   -3.222339|   -3.362667|
|         628|   -6.152764|   -3.216859|   -3.358382|
|         629|   -6.148986|   -3.210896|   -3.353652|
|         630|   -6.144204|   -3.204384|   -3.348443|
|         631|   -6.138864|   -3.197317|   -3.342814|
|         632|   -6.133023|   -3.189734|   -3.336705|
|         633|   -6.126931|   -3.181819|   -3.330332|
|         634|   -6.120995|   -3.173686|   -3.323676|
|         635|   -6.115658|   -3.165568|   -3.317023|
|         636|   -6.110770|   -3.157623|   -3.310355|
|         637|   -6.106501|   -3.150024|   -3.303877|
|         638|   -6.102673|   -3.142835|   -3.297415|
|         639|   -6.099076|   -3.136039|   -3.291075|
|         640|   -6.095538|   -3.129550|   -3.284641|
|         641|   -6.091721|   -3.123206|   -3.278059|
|         642|   -6.087186|   -3.116831|   -3.271060|
|         643|   -6.081682|   -3.110178|   -3.263474|
|         644|   -6.075100|   -3.103157|   -3.255159|
|         645|   -6.067474|   -3.095545|   -3.246053|
|         646|   -6.058972|   -3.087360|   -3.236232|
|         647|   -6.049814|   -3.078556|   -3.225736|
|         648|   -6.040255|   -3.069312|   -3.214881|
|         649|   -6.030758|   -3.059837|   -3.203922|
|         650|   -6.021878|   -3.050337|   -3.193180|
|         651|   -6.013490|   -3.041047|   -3.182957|
|         652|   -6.005835|   -3.032236|   -3.173532|
|         653|   -5.998719|   -3.024182|   -3.165084|
|         654|   -5.991415|   -3.017189|   -3.157699|
|         655|   -5.984047|   -3.011598|   -3.151443|
|         656|   -5.976561|   -3.007197|   -3.146146|
|         657|   -5.966407|   -3.004515|   -3.141437|
|         658|   -5.956642|   -3.003547|   -3.137527|
|         659|   -5.948099|   -3.004115|   -3.134437|
|         660|   -5.940576|   -3.005778|   -3.131630|
|         661|   -5.934500|   -3.007711|   -3.128812|
|         662|   -5.929781|   -3.009394|   -3.125806|
|         663|   -5.926468|   -3.010384|   -3.122446|
|         664|   -5.924791|   -3.010329|   -3.118704|
|         665|   -5.924918|   -3.009057|   -3.114598|
|         666|   -5.927653|   -3.006562|   -3.110207|
|         667|   -5.932592|   -3.002722|   -3.105263|
|         668|   -5.938763|   -2.997413|   -3.099584|
|         669|   -5.945520|   -2.990371|   -3.093126|
|         670|   -5.951639|   -2.981266|   -3.085814|
|         671|   -5.956435|   -2.970072|   -3.078035|
|         672|   -5.956379|   -2.957257|   -3.069980|
|         673|   -5.944149|   -2.943741|   -3.061652|
|         674|   -5.913990|   -2.930600|   -3.052235|
|         675|   -5.870335|   -2.918521|   -3.040319|
|         676|   -5.829430|   -2.906943|   -3.025743|
|         677|   -5.800854|   -2.894455|   -3.009585|
|         678|   -5.785308|   -2.880200|   -2.992366|
|         679|   -5.776867|   -2.865246|   -2.974650|
|         680|   -5.776331|   -2.852529|   -2.956181|
|         681|   -5.780942|   -2.844584|   -2.937464|
|         682|   -5.777779|   -2.842911|   -2.922010|
|         683|   -5.770342|   -2.857868|   -2.920620|
|         684|   -5.789713|   -2.880760|   -2.927309|
|         685|   -5.818560|   -2.906066|   -2.942354|
|         686|   -5.856135|   -2.930636|   -2.967014|
|         687|   -5.894343|   -2.955026|   -2.999299|
|         688|   -5.932321|   -2.978891|   -3.036183|
|         689|   -5.967735|   -3.001529|   -3.074988|
|         690|   -5.998878|   -3.022294|   -3.113465|
|         691|   -6.024678|   -3.040745|   -3.149653|
|         692|   -6.044299|   -3.056685|   -3.181868|
|         693|   -6.057796|   -3.070042|   -3.209072|
|         694|   -6.066342|   -3.080839|   -3.230714|
|         695|   -6.071328|   -3.089088|   -3.246464|
|         696|   -6.073578|   -3.094717|   -3.256182|
|         697|   -6.073693|   -3.097614|   -3.260125|
|         698|   -6.071819|   -3.097706|   -3.258767|
|         699|   -6.067463|   -3.094985|   -3.252625|
|         700|   -6.060549|   -3.089670|   -3.242429|
|         701|   -6.051346|   -3.082207|   -3.229137|
|         702|   -6.040148|   -3.073247|   -3.213883|
|         703|   -6.027625|   -3.063622|   -3.197811|
|         704|   -6.014953|   -3.054221|   -3.182321|
|         705|   -6.002929|   -3.045816|   -3.168277|
|         706|   -5.992350|   -3.038928|   -3.156455|
|         707|   -5.983225|   -3.033760|   -3.147173|
|         708|   -5.975248|   -3.030330|   -3.140469|
|         709|   -5.967692|   -3.028604|   -3.135944|
|         710|   -5.959703|   -3.028362|   -3.133211|
|         711|   -5.951583|   -3.029158|   -3.132133|
|         712|   -5.943937|   -3.030674|   -3.132580|
|         713|   -5.936350|   -3.032693|   -3.134428|
|         714|   -5.928777|   -3.035141|   -3.137562|
|         715|   -5.921511|   -3.038014|   -3.141949|
|         716|   -5.913658|   -3.041343|   -3.147456|
|         717|   -5.906026|   -3.045167|   -3.153994|
|         718|   -5.898362|   -3.049533|   -3.161371|
|         719|   -5.891434|   -3.054508|   -3.169518|
|         720|   -5.885738|   -3.060206|   -3.178358|
|         721|   -5.881914|   -3.066827|   -3.187806|
|         722|   -5.879919|   -3.074430|   -3.197703|
|         723|   -5.879708|   -3.082853|   -3.208005|
|         724|   -5.880793|   -3.092017|   -3.218615|
|         725|   -5.882985|   -3.101829|   -3.229669|
|         726|   -5.885674|   -3.112189|   -3.240788|
|         727|   -5.889359|   -3.123037|   -3.251915|
|         728|   -5.893412|   -3.134239|   -3.262893|
|         729|   -5.897415|   -3.145486|   -3.273779|
|         730|   -5.900633|   -3.156696|   -3.284480|
|         731|   -5.904159|   -3.167880|   -3.295027|
|         732|   -5.907526|   -3.178998|   -3.305269|
|         733|   -5.910737|   -3.189959|   -3.315168|
|         734|   -5.912896|   -3.200698|   -3.324486|
|         735|   -5.914130|   -3.211162|   -3.333158|
|         736|   -5.915773|   -3.221266|   -3.341460|
|         737|   -5.916684|   -3.230949|   -3.349355|
|         738|   -5.918000|   -3.240216|   -3.357121|
|         739|   -5.919844|   -3.249026|   -3.364890|
|         740|   -5.920901|   -3.257379|   -3.372501|
|         741|   -5.922169|   -3.265205|   -3.380080|
|         742|   -5.923979|   -3.272468|   -3.387703|
|         743|   -5.925429|   -3.279120|   -3.395194|
|         744|   -5.926933|   -3.285112|   -3.402473|
|         745|   -5.928306|   -3.290389|   -3.409331|
|         746|   -5.930005|   -3.294889|   -3.415697|
|         747|   -5.931068|   -3.298627|   -3.421286|
|         748|   -5.931663|   -3.301662|   -3.426051|
|         749|   -5.931687|   -3.304071|   -3.430062|
|         750|   -5.930556|   -3.305940|   -3.433222|
|         751|   -5.928448|   -3.307301|   -3.435403|
|         752|   -5.926049|   -3.308125|   -3.436438|
|         753|   -5.923569|   -3.308456|   -3.436096|
|         754|   -5.921229|   -3.308614|   -3.434478|
|         755|   -5.919078|   -3.308913|   -3.432207|
|         756|   -5.917067|   -3.309657|   -3.430118|
|         757|   -5.915557|   -3.311089|   -3.428903|
|         758|   -5.914840|   -3.313311|   -3.428935|
|         759|   -5.914656|   -3.316308|   -3.430270|
|         760|   -5.915170|   -3.319947|   -3.432804|
|         761|   -5.915698|   -3.324114|   -3.436220|
|         762|   -5.915559|   -3.328658|   -3.440119|
|         763|   -5.914850|   -3.333403|   -3.444330|
|         764|   -5.913667|   -3.338162|   -3.448650|
|         765|   -5.911981|   -3.342673|   -3.452682|
|         766|   -5.909939|   -3.346681|   -3.456126|
|         767|   -5.907738|   -3.350201|   -3.459011|
|         768|   -5.905715|   -3.353402|   -3.461635|
|         769|   -5.903962|   -3.356315|   -3.464155|
|         770|   -5.902411|   -3.358771|   -3.466454|
|         771|   -5.901708|   -3.360500|   -3.468389|
|         772|   -5.901942|   -3.361176|   -3.469839|
|         773|   -5.903052|   -3.360391|   -3.470861|
|         774|   -5.903925|   -3.357744|   -3.471339|
|         775|   -5.903735|   -3.352903|   -3.470924|
|         776|   -5.902034|   -3.345793|   -3.469155|
|         777|   -5.899192|   -3.336696|   -3.465611|
|         778|   -5.895140|   -3.326376|   -3.459781|
|         779|   -5.889862|   -3.315861|   -3.451348|
|         780|   -5.884335|   -3.305978|   -3.440724|
|         781|   -5.878619|   -3.297255|   -3.428601|
|         782|   -5.873143|   -3.289915|   -3.416335|
|         783|   -5.865581|   -3.284076|   -3.405276|
|         784|   -5.856980|   -3.280129|   -3.395895|
|         785|   -5.849220|   -3.278477|   -3.388374|
|         786|   -5.843829|   -3.279508|   -3.383145|
|         787|   -5.842012|   -3.283153|   -3.380597|
|         788|   -5.843393|   -3.289040|   -3.380701|
|         789|   -5.848806|   -3.296205|   -3.383437|
|         790|   -5.857623|   -3.304035|   -3.388196|
|         791|   -5.868580|   -3.312318|   -3.394030|
|         792|   -5.878773|   -3.320451|   -3.399541|
|         793|   -5.885421|   -3.327851|   -3.403618|
|         794|   -5.886978|   -3.334717|   -3.405896|
|         795|   -5.884964|   -3.341281|   -3.407009|
|         796|   -5.882078|   -3.347882|   -3.408048|
|         797|   -5.881781|   -3.354617|   -3.409884|
|         798|   -5.884606|   -3.361224|   -3.412763|
|         799|   -5.889993|   -3.367292|   -3.416406|
|         800|   -5.896710|   -3.372440|   -3.420321|
|         801|   -5.903547|   -3.376311|   -3.423967|
|         802|   -5.909581|   -3.378462|   -3.426748|
|         803|   -5.914954|   -3.378618|   -3.428059|
|         804|   -5.920082|   -3.376748|   -3.427529|
|         805|   -5.925170|   -3.373081|   -3.425065|
|         806|   -5.929907|   -3.368158|   -3.420757|
|         807|   -5.933684|   -3.362818|   -3.414931|
|         808|   -5.936170|   -3.358082|   -3.408242|
|         809|   -5.937668|   -3.354831|   -3.401544|
|         810|   -5.938908|   -3.353436|   -3.395576|
|         811|   -5.940102|   -3.353630|   -3.390648|
|         812|   -5.941665|   -3.354857|   -3.386843|
|         813|   -5.943417|   -3.356257|   -3.384129|
|         814|   -5.944974|   -3.357311|   -3.382471|
|         815|   -5.946079|   -3.357854|   -3.381552|
|         816|   -5.948003|   -3.358018|   -3.380958|
|         817|   -5.950778|   -3.358046|   -3.380314|
|         818|   -5.953067|   -3.358224|   -3.379517|
|         819|   -5.954769|   -3.358721|   -3.378632|
|         820|   -5.956003|   -3.359677|   -3.377831|
|         821|   -5.957730|   -3.361288|   -3.377273|
|         822|   -5.960220|   -3.363699|   -3.377126|
|         823|   -5.963523|   -3.366800|   -3.377650|
|         824|   -5.967421|   -3.370329|   -3.378985|
|         825|   -5.970884|   -3.373907|   -3.380990|
|         826|   -5.973083|   -3.376997|   -3.383431|
|         827|   -5.972972|   -3.379058|   -3.386077|
|         828|   -5.969421|   -3.379526|   -3.388611|
|         829|   -5.961104|   -3.377930|   -3.390659|
|         830|   -5.947634|   -3.374095|   -3.391872|
|         831|   -5.929072|   -3.368003|   -3.391865|
|         832|   -5.907785|   -3.360065|   -3.390688|
|         833|   -5.887240|   -3.351343|   -3.388700|
|         834|   -5.870893|   -3.343479|   -3.386354|
|         835|   -5.864788|   -3.338496|   -3.384796|
|         836|   -5.871010|   -3.337678|   -3.383704|
|         837|   -5.902409|   -3.341136|   -3.385947|
|         838|   -5.917880|   -3.345095|   -3.386657|
|         839|   -5.939655|   -3.350611|   -3.389018|
|         840|   -5.964942|   -3.355760|   -3.392758|
|         841|   -5.982416|   -3.360983|   -3.397266|
|         842|   -6.001847|   -3.366584|   -3.403693|
|         843|   -6.020195|   -3.372358|   -3.411278|
|         844|   -6.037085|   -3.378238|   -3.419707|
|         845|   -6.053378|   -3.384170|   -3.428855|
|         846|   -6.068852|   -3.390037|   -3.438389|
|         847|   -6.083393|   -3.395692|   -3.448045|
|         848|   -6.097580|   -3.401018|   -3.457599|
|         849|   -6.110998|   -3.405913|   -3.466781|
|         850|   -6.123378|   -3.410314|   -3.475378|
|         851|   -6.135168|   -3.414174|   -3.483303|
|         852|   -6.146304|   -3.417524|   -3.490396|
|         853|   -6.156158|   -3.420312|   -3.496523|
|         854|   -6.164748|   -3.422513|   -3.501573|
|         855|   -6.171804|   -3.424039|   -3.505300|
|         856|   -6.177657|   -3.424794|   -3.507651|
|         857|   -6.182670|   -3.424774|   -3.508754|
|         858|   -6.186691|   -3.424101|   -3.508763|
|         859|   -6.190243|   -3.422932|   -3.507848|
|         860|   -6.193211|   -3.421471|   -3.506114|
|         861|   -6.195573|   -3.419920|   -3.503722|
|         862|   -6.197808|   -3.418435|   -3.500928|
|         863|   -6.201160|   -3.417030|   -3.498125|
|         864|   -6.205463|   -3.415608|   -3.495633|
|         865|   -6.208842|   -3.413973|   -3.493445|
|         866|   -6.209768|   -3.411867|   -3.491296|
|         867|   -6.207796|   -3.409187|   -3.488801|
|         868|   -6.204729|   -3.406071|   -3.485798|
|         869|   -6.201516|   -3.402880|   -3.482345|
|         870|   -6.198296|   -3.400024|   -3.478741|
|         871|   -6.195286|   -3.397842|   -3.475436|
|         872|   -6.192557|   -3.396428|   -3.472721|
|         873|   -6.190490|   -3.395588|   -3.470704|
|         874|   -6.188730|   -3.395035|   -3.469272|
|         875|   -6.187468|   -3.394528|   -3.468208|
|         876|   -6.185932|   -3.393884|   -3.467218|
|         877|   -6.184720|   -3.392928|   -3.466155|
|         878|   -6.183271|   -3.391531|   -3.464954|
|         879|   -6.180198|   -3.389688|   -3.463437|
|         880|   -6.176917|   -3.387383|   -3.461635|
|         881|   -6.172207|   -3.384677|   -3.459420|
|         882|   -6.167565|   -3.381611|   -3.456922|
|         883|   -6.161544|   -3.378272|   -3.453985|
|         884|   -6.155829|   -3.374743|   -3.450745|
|         885|   -6.150289|   -3.371077|   -3.447321|
|         886|   -6.144458|   -3.367427|   -3.443679|
|         887|   -6.139059|   -3.363885|   -3.439944|
|         888|   -6.133572|   -3.360456|   -3.436059|
|         889|   -6.128175|   -3.357142|   -3.431968|
|         890|   -6.122484|   -3.354062|   -3.427836|
|         891|   -6.116699|   -3.351348|   -3.423832|
|         892|   -6.110681|   -3.348974|   -3.419934|
|         893|   -6.104991|   -3.346778|   -3.416070|
|         894|   -6.098982|   -3.344790|   -3.412338|
|         895|   -6.093417|   -3.343080|   -3.408880|
|         896|   -6.088108|   -3.341669|   -3.405713|
|         897|   -6.083530|   -3.340540|   -3.402837|
|         898|   -6.079646|   -3.339744|   -3.400266|
|         899|   -6.076929|   -3.339312|   -3.398013|
|         900|   -6.075371|   -3.339180|   -3.396055|
|         901|   -6.074876|   -3.339207|   -3.394389|
|         902|   -6.075248|   -3.339320|   -3.393028|
|         903|   -6.076270|   -3.339499|   -3.391966|
|         904|   -6.077824|   -3.339735|   -3.391169|
|         905|   -6.079697|   -3.340002|   -3.390616|
|         906|   -6.081828|   -3.340226|   -3.390294|
|         907|   -6.084018|   -3.340350|   -3.390165|
|         908|   -6.086104|   -3.340362|   -3.390201|
|         909|   -6.088114|   -3.340290|   -3.390386|
|         910|   -6.089950|   -3.340141|   -3.390724|
|         911|   -6.091504|   -3.339886|   -3.391222|
|         912|   -6.092684|   -3.339493|   -3.391840|
|         913|   -6.093370|   -3.338998|   -3.392548|
|         914|   -6.093820|   -3.338638|   -3.393199|
|         915|   -6.095562|   -3.338473|   -3.393889|
|         916|   -6.098036|   -3.338253|   -3.394565|
|         917|   -6.099941|   -3.337833|   -3.395274|
|         918|   -6.101474|   -3.337315|   -3.396034|
|         919|   -6.102678|   -3.336890|   -3.396841|
|         920|   -6.103542|   -3.336619|   -3.397698|
|         921|   -6.104234|   -3.336342|   -3.398532|
|         922|   -6.104760|   -3.336030|   -3.399261|
|         923|   -6.105279|   -3.335803|   -3.399987|
|         924|   -6.105525|   -3.335598|   -3.400826|
|         925|   -6.105572|   -3.335152|   -3.401685|
|         926|   -6.105903|   -3.334737|   -3.402483|
|         927|   -6.106146|   -3.334839|   -3.403255|
|         928|   -6.106265|   -3.335246|   -3.404053|
|         929|   -6.106459|   -3.335412|   -3.404960|
|         930|   -6.106966|   -3.335398|   -3.405910|
|         931|   -6.107299|   -3.335631|   -3.406851|
|         932|   -6.107643|   -3.336209|   -3.407922|
|         933|   -6.108160|   -3.336853|   -3.409149|
|         934|   -6.108764|   -3.337392|   -3.410454|
|         935|   -6.109312|   -3.337966|   -3.411838|
|         936|   -6.110163|   -3.338759|   -3.413359|
|         937|   -6.110822|   -3.339747|   -3.414971|
|         938|   -6.111723|   -3.340779|   -3.416642|
|         939|   -6.112598|   -3.341769|   -3.418306|
|         940|   -6.113740|   -3.342758|   -3.419976|
|         941|   -6.114579|   -3.343817|   -3.421608|
|         942|   -6.115787|   -3.344959|   -3.423263|
|         943|   -6.116588|   -3.346140|   -3.424875|
|         944|   -6.117466|   -3.347305|   -3.426471|
|         945|   -6.118265|   -3.348475|   -3.428005|
|         946|   -6.119279|   -3.349685|   -3.429473|
|         947|   -6.120711|   -3.351081|   -3.430916|
|         948|   -6.122106|   -3.352741|   -3.432317|
|         949|   -6.123947|   -3.354612|   -3.433740|
|         950|   -6.125876|   -3.356551|   -3.435146|
|         951|   -6.127822|   -3.358435|   -3.436522|
|         952|   -6.129863|   -3.360191|   -3.437869|
|         953|   -6.131377|   -3.361850|   -3.439156|
|         954|   -6.133159|   -3.363460|   -3.440473|
|         955|   -6.134564|   -3.365057|   -3.441770|
|         956|   -6.136370|   -3.366621|   -3.443119|
|         957|   -6.137789|   -3.368147|   -3.444423|
|         958|   -6.139689|   -3.369633|   -3.445781|
|         959|   -6.141166|   -3.371078|   -3.447086|
|         960|   -6.142855|   -3.372506|   -3.448387|
|         961|   -6.144391|   -3.373873|   -3.449600|
|         962|   -6.146175|   -3.375162|   -3.450737|
|         963|   -6.147854|   -3.376338|   -3.451753|
|         964|   -6.149836|   -3.377444|   -3.452718|
|         965|   -6.151892|   -3.378500|   -3.453599|
|         966|   -6.154260|   -3.379491|   -3.454406|
|         967|   -6.156806|   -3.380376|   -3.455091|
|         968|   -6.159742|   -3.381130|   -3.455705|
|         969|   -6.162785|   -3.381830|   -3.456302|
|         970|   -6.166236|   -3.382592|   -3.457002|
|         971|   -6.169821|   -3.383555|   -3.457832|
|         972|   -6.173795|   -3.384742|   -3.458848|
|         973|   -6.178060|   -3.386118|   -3.460011|
|         974|   -6.182619|   -3.387613|   -3.461297|
|         975|   -6.187589|   -3.389177|   -3.462741|
|         976|   -6.192796|   -3.390825|   -3.464368|
|         977|   -6.198207|   -3.392570|   -3.466202|
|         978|   -6.203751|   -3.394362|   -3.468184|
|         979|   -6.209418|   -3.396084|   -3.470232|
|         980|   -6.215107|   -3.397631|   -3.472270|
|         981|   -6.220849|   -3.398952|   -3.474309|
|         982|   -6.226629|   -3.400053|   -3.476375|
|         983|   -6.232213|   -3.400973|   -3.478427|
|         984|   -6.237697|   -3.401748|   -3.480436|
|         985|   -6.243226|   -3.402371|   -3.482388|
|         986|   -6.248381|   -3.402825|   -3.484219|
|         987|   -6.253479|   -3.403121|   -3.485962|
|         988|   -6.258547|   -3.403306|   -3.487672|
|         989|   -6.263450|   -3.403448|   -3.489411|
|         990|   -6.268223|   -3.403594|   -3.491229|
|         991|   -6.272874|   -3.403725|   -3.493147|
|         992|   -6.277479|   -3.403780|   -3.495166|
|         993|   -6.282085|   -3.403706|   -3.497279|
|         994|   -6.286737|   -3.403486|   -3.499480|
|         995|   -6.291491|   -3.403150|   -3.501744|
|         996|   -6.296377|   -3.402744|   -3.504060|
|         997|   -6.301427|   -3.402318|   -3.506436|
|         998|   -6.306671|   -3.401906|   -3.508878|
|         999|   -6.312116|   -3.401519|   -3.511371|
|        1000|   -6.317768|   -3.401160|   -3.513872|
|        1001|   -6.323599|   -3.400820|   -3.516354|
|        1002|   -6.329595|   -3.400494|   -3.518804|
|        1003|   -6.335732|   -3.400178|   -3.521208|
|        1004|   -6.341982|   -3.399861|   -3.523576|
|        1005|   -6.348324|   -3.399555|   -3.525906|
|        1006|   -6.354736|   -3.399263|   -3.528190|
|        1007|   -6.361177|   -3.399009|   -3.530389|
|        1008|   -6.367521|   -3.398805|   -3.532477|
|        1009|   -6.373678|   -3.398663|   -3.534455|
|        1010|   -6.379515|   -3.398582|   -3.536343|
|        1011|   -6.385125|   -3.398558|   -3.538164|
|        1012|   -6.390409|   -3.398599|   -3.539942|
|        1013|   -6.395421|   -3.398718|   -3.541679|
|        1014|   -6.400357|   -3.398908|   -3.543410|
|        1015|   -6.405035|   -3.399151|   -3.545114|
|        1016|   -6.409407|   -3.399407|   -3.546777|
|        1017|   -6.413233|   -3.399647|   -3.548323|
|        1018|   -6.416576|   -3.399832|   -3.549705|
|        1019|   -6.419525|   -3.399922|   -3.550862|
|        1020|   -6.422241|   -3.399834|   -3.551750|
|        1021|   -6.424777|   -3.399466|   -3.552273|
|        1022|   -6.427245|   -3.398734|   -3.552315|
|        1023|   -6.429606|   -3.397604|   -3.551712|
|        1024|   -6.431734|   -3.396020|   -3.550386|
|        1025|   -6.433380|   -3.393870|   -3.548284|
|        1026|   -6.434611|   -3.391031|   -3.545327|
|        1027|   -6.435251|   -3.387464|   -3.541401|
|        1028|   -6.435509|   -3.383186|   -3.536528|
|        1029|   -6.435055|   -3.378235|   -3.530768|
|        1030|   -6.433926|   -3.372643|   -3.524187|
|        1031|   -6.432145|   -3.366445|   -3.516839|
|        1032|   -6.429351|   -3.359723|   -3.508815|
|        1033|   -6.426042|   -3.352602|   -3.500218|
|        1034|   -6.421985|   -3.345237|   -3.491167|
|        1035|   -6.416301|   -3.337724|   -3.481795|
|        1036|   -6.409960|   -3.330131|   -3.472290|
|        1037|   -6.402566|   -3.322581|   -3.462756|
|        1038|   -6.394606|   -3.315276|   -3.453348|
|        1039|   -6.385857|   -3.308350|   -3.444300|
|        1040|   -6.376526|   -3.301811|   -3.435806|
|        1041|   -6.366802|   -3.295655|   -3.427774|
|        1042|   -6.356907|   -3.290025|   -3.420106|
|        1043|   -6.346727|   -3.284992|   -3.412954|
|        1044|   -6.336231|   -3.280425|   -3.406446|
|        1045|   -6.325898|   -3.276231|   -3.400423|
|        1046|   -6.316368|   -3.272543|   -3.394831|
|        1047|   -6.307613|   -3.269504|   -3.390104|
|        1048|   -6.299141|   -3.267040|   -3.386468|
|        1049|   -6.291048|   -3.264943|   -3.383543|
|        1050|   -6.283434|   -3.263164|   -3.380907|
|        1051|   -6.276076|   -3.261860|   -3.378232|
|        1052|   -6.268819|   -3.261104|   -3.375243|
|        1053|   -6.262211|   -3.260743|   -3.371911|
|        1054|   -6.256954|   -3.260645|   -3.368478|
|        1055|   -6.253607|   -3.260852|   -3.365382|
|        1056|   -6.252608|   -3.261416|   -3.362936|
|        1057|   -6.253399|   -3.262246|   -3.361163|
|        1058|   -6.254713|   -3.263176|   -3.359806|
|        1059|   -6.254670|   -3.264032|   -3.358475|
|        1060|   -6.251941|   -3.264622|   -3.356960|
|        1061|   -6.245952|   -3.264763|   -3.355259|
|        1062|   -6.236995|   -3.264338|   -3.353485|
|        1063|   -6.225800|   -3.263270|   -3.351772|
|        1064|   -6.213166|   -3.261638|   -3.350217|
|        1065|   -6.199695|   -3.259565|   -3.348780|
|        1066|   -6.186952|   -3.257117|   -3.347460|
|        1067|   -6.175230|   -3.254218|   -3.346188|
|        1068|   -6.164049|   -3.250626|   -3.344872|
|        1069|   -6.151683|   -3.245895|   -3.343435|
|        1070|   -6.134589|   -3.239488|   -3.341890|
|        1071|   -6.107831|   -3.231078|   -3.339888|
|        1072|   -6.072189|   -3.220533|   -3.336455|
|        1073|   -6.032703|   -3.208460|   -3.330520|
|        1074|   -6.000438|   -3.195500|   -3.322236|
|        1075|   -5.970892|   -3.182881|   -3.312651|
|        1076|   -5.951431|   -3.174643|   -3.305692|
|        1077|   -5.948679|   -3.171968|   -3.303408|
|        1078|   -5.950655|   -3.175216|   -3.302486|
|        1079|   -5.956912|   -3.185478|   -3.304492|
|        1080|   -5.979365|   -3.194686|   -3.305907|
|        1081|   -5.992788|   -3.199089|   -3.304381|
|        1082|   -6.002929|   -3.194615|   -3.299860|
|        1083|   -6.003237|   -3.182499|   -3.291701|
|        1084|   -5.994942|   -3.166377|   -3.279970|
|        1085|   -5.984423|   -3.150294|   -3.265504|
|        1086|   -5.970673|   -3.139748|   -3.249536|
|        1087|   -5.961943|   -3.136556|   -3.235425|
|        1088|   -5.961785|   -3.136896|   -3.225886|
|        1089|   -5.965372|   -3.138311|   -3.221814|
|        1090|   -5.963288|   -3.139735|   -3.222267|
|        1091|   -5.952611|   -3.141015|   -3.226126|
|        1092|   -5.937616|   -3.141667|   -3.232073|
|        1093|   -5.920156|   -3.141264|   -3.238941|
|        1094|   -5.901309|   -3.139834|   -3.246054|
|        1095|   -5.882464|   -3.137784|   -3.252587|
|        1096|   -5.864349|   -3.135976|   -3.257813|
|        1097|   -5.849418|   -3.135325|   -3.261940|
|        1098|   -5.839316|   -3.136466|   -3.265744|
|        1099|   -5.834028|   -3.139315|   -3.269946|
|        1100|   -5.832524|   -3.142807|   -3.273628|
|        1101|   -5.830584|   -3.144966|   -3.275076|
|        1102|   -5.825113|   -3.143407|   -3.271944|
|        1103|   -5.814224|   -3.135185|   -3.261536|
|        1104|   -5.796090|   -3.118061|   -3.242636|
|        1105|   -5.769083|   -3.092668|   -3.216438|
|        1106|   -5.733800|   -3.062672|   -3.186263|
|        1107|   -5.692483|   -3.032211|   -3.156183|
|        1108|   -5.647114|   -3.004326|   -3.129576|
|        1109|   -5.595932|   -2.978841|   -3.105645|
|        1110|   -5.539743|   -2.953267|   -3.083420|
|        1111|   -5.486778|   -2.927989|   -3.049579|
|        1112|   -5.580798|   -2.935138|   -3.064490|
|        1113|   -5.622438|   -2.938405|   -3.059370|
|        1114|   -5.687231|   -2.957244|   -3.067755|
|        1115|   -5.715177|   -2.969746|   -3.072230|
|        1116|   -5.734543|   -2.983833|   -3.077727|
|        1117|   -5.746077|   -2.995242|   -3.084688|
|        1118|   -5.743086|   -3.005888|   -3.091938|
|        1119|   -5.733904|   -3.015129|   -3.100444|
|        1120|   -5.716692|   -3.022761|   -3.109188|
|        1121|   -5.693485|   -3.028448|   -3.116354|
|        1122|   -5.684521|   -3.034323|   -3.125023|
|        1123|   -5.691578|   -3.043262|   -3.135023|
|        1124|   -5.735844|   -3.055609|   -3.152160|
|        1125|   -5.762188|   -3.068165|   -3.166383|
|        1126|   -5.780991|   -3.081106|   -3.180091|
|        1127|   -5.794358|   -3.093511|   -3.193429|
|        1128|   -5.801651|   -3.105529|   -3.206479|
|        1129|   -5.805688|   -3.117148|   -3.219678|
|        1130|   -5.809321|   -3.128330|   -3.232358|
|        1131|   -5.823230|   -3.138537|   -3.245960|
|        1132|   -5.833232|   -3.147673|   -3.258614|
|        1133|   -5.842460|   -3.155461|   -3.270452|
|        1134|   -5.850358|   -3.161643|   -3.280826|
|        1135|   -5.856391|   -3.166073|   -3.289035|
|        1136|   -5.861899|   -3.168774|   -3.294902|
|        1137|   -5.866519|   -3.169990|   -3.298140|
|        1138|   -5.870570|   -3.170076|   -3.298928|
|        1139|   -5.873943|   -3.169445|   -3.297556|
|        1140|   -5.876010|   -3.168557|   -3.294282|
|        1141|   -5.876772|   -3.167885|   -3.289336|
|        1142|   -5.876548|   -3.167880|   -3.282881|
|        1143|   -5.875642|   -3.169037|   -3.275105|
|        1144|   -5.874730|   -3.172056|   -3.266558|
|        1145|   -5.875145|   -3.177667|   -3.258247|
|        1146|   -5.877072|   -3.186258|   -3.251122|
|        1147|   -5.880223|   -3.197336|   -3.245708|
|        1148|   -5.883820|   -3.209796|   -3.242203|
|        1149|   -5.887254|   -3.222514|   -3.240906|
|        1150|   -5.891032|   -3.234814|   -3.242653|
|        1151|   -5.895598|   -3.246090|   -3.246495|
|        1152|   -5.900433|   -3.255920|   -3.251494|
|        1153|   -5.904710|   -3.264370|   -3.257283|
|        1154|   -5.907446|   -3.271634|   -3.263523|
|        1155|   -5.908419|   -3.277848|   -3.269927|
|        1156|   -5.907638|   -3.283170|   -3.276571|
|        1157|   -5.905459|   -3.287662|   -3.283555|
|        1158|   -5.902199|   -3.291364|   -3.290959|
|        1159|   -5.898071|   -3.294218|   -3.298630|
|        1160|   -5.894078|   -3.296177|   -3.306474|
|        1161|   -5.890908|   -3.297164|   -3.314283|
|        1162|   -5.889191|   -3.297226|   -3.321772|
|        1163|   -5.888815|   -3.296499|   -3.328642|
|        1164|   -5.888973|   -3.295205|   -3.334635|
|        1165|   -5.889257|   -3.293663|   -3.339846|
|        1166|   -5.888433|   -3.292247|   -3.344394|
|        1167|   -5.887322|   -3.291296|   -3.348697|
|        1168|   -5.884917|   -3.290884|   -3.352878|
|        1169|   -5.883575|   -3.290452|   -3.356970|
|        1170|   -5.879456|   -3.288752|   -3.359861|
|        1171|   -5.866576|   -3.283976|   -3.359428|
|        1172|   -5.843264|   -3.274170|   -3.353921|
|        1173|   -5.811673|   -3.257961|   -3.343537|
|        1174|   -5.784118|   -3.235315|   -3.330764|
|        1175|   -5.770216|   -3.209413|   -3.313201|
|        1176|   -5.744206|   -3.187238|   -3.283103|
|        1177|   -5.716590|   -3.165936|   -3.249665|
|        1178|   -5.706628|   -3.140406|   -3.215674|
|        1179|   -5.699162|   -3.121995|   -3.176159|
|        1180|   -5.691875|   -3.118290|   -3.135464|
|        1181|   -5.719126|   -3.125961|   -3.130746|
|        1182|   -5.748875|   -3.146170|   -3.156565|
|        1183|   -5.778366|   -3.173667|   -3.184453|
|        1184|   -5.811729|   -3.204485|   -3.215852|
|        1185|   -5.848100|   -3.234407|   -3.249353|
|        1186|   -5.880485|   -3.261668|   -3.279956|
|        1187|   -5.911264|   -3.285066|   -3.305609|
|        1188|   -5.937590|   -3.304697|   -3.326364|
|        1189|   -5.959038|   -3.321226|   -3.343218|
|        1190|   -5.976484|   -3.335432|   -3.357291|
|        1191|   -5.991348|   -3.347841|   -3.369424|
|        1192|   -6.004654|   -3.358834|   -3.380081|
|        1193|   -6.016927|   -3.368561|   -3.389584|
|        1194|   -6.027926|   -3.377043|   -3.397960|
|        1195|   -6.037611|   -3.384244|   -3.405324|
|        1196|   -6.045734|   -3.390298|   -3.411710|
|        1197|   -6.052049|   -3.395338|   -3.417323|
|        1198|   -6.057352|   -3.399641|   -3.422385|
|        1199|   -6.062501|   -3.403558|   -3.427144|
|        1200|   -6.067869|   -3.407331|   -3.431792|
|        1201|   -6.073765|   -3.410972|   -3.436457|
|        1202|   -6.079818|   -3.414378|   -3.441062|
|        1203|   -6.085674|   -3.417499|   -3.445459|
|        1204|   -6.091301|   -3.420336|   -3.449718|
|        1205|   -6.096148|   -3.422860|   -3.453929|
|        1206|   -6.100334|   -3.424820|   -3.458134|
|        1207|   -6.104621|   -3.425996|   -3.462199|
|        1208|   -6.109370|   -3.426287|   -3.465878|
|        1209|   -6.114109|   -3.425841|   -3.469022|
|        1210|   -6.118323|   -3.424905|   -3.471644|
[...]
|        3720|   -3.248544|    2.456456|    2.457542|
|        3721|   -3.241187|    2.470397|    2.464667|
|        3722|   -3.237088|    2.484451|    2.469572|
|        3723|   -3.236731|    2.497033|    2.473344|
|        3724|   -3.238519|    2.506588|    2.477278|
|        3725|   -3.241178|    2.512087|    2.482350|
|        3726|   -3.242862|    2.513163|    2.489210|
|        3727|   -3.242421|    2.510423|    2.497891|
|        3728|   -3.238803|    2.505245|    2.507765|
|        3729|   -3.233564|    2.499510|    2.517600|
|        3730|   -3.228745|    2.495289|    2.526177|
|        3731|   -3.223867|    2.494243|    2.532512|
|        3732|   -3.219313|    2.497111|    2.536133|
|        3733|   -3.216200|    2.503842|    2.536921|
|        3734|   -3.214253|    2.513583|    2.535114|
|        3735|   -3.212954|    2.524889|    2.531271|
|        3736|   -3.212534|    2.535996|    2.526332|
|        3737|   -3.213208|    2.545236|    2.521517|
|        3738|   -3.214715|    2.551605|    2.517704|
|        3739|   -3.215739|    2.554694|    2.515424|
|        3740|   -3.215865|    2.554617|    2.514937|
|        3741|   -3.214781|    2.551955|    2.516337|
|        3742|   -3.212927|    2.547899|    2.519180|
|        3743|   -3.210135|    2.543442|    2.523039|
|        3744|   -3.206171|    2.539559|    2.527299|
|        3745|   -3.201513|    2.537016|    2.531143|
|        3746|   -3.197608|    2.536223|    2.534034|
|        3747|   -3.196199|    2.537418|    2.535500|
|        3748|   -3.198186|    2.540699|    2.535155|
|        3749|   -3.200904|    2.545820|    2.532970|
|        3750|   -3.203212|    2.552267|    2.529248|
|        3751|   -3.205815|    2.559303|    2.524564|
|        3752|   -3.209056|    2.566246|    2.519420|
|        3753|   -3.211924|    2.572370|    2.514266|
|        3754|   -3.214304|    2.577013|    2.509585|
|        3755|   -3.217101|    2.579616|    2.505847|
|        3756|   -3.220351|    2.580141|    2.503051|
|        3757|   -3.224104|    2.578479|    2.501372|
|        3758|   -3.228419|    2.574704|    2.500883|
|        3759|   -3.232781|    2.569133|    2.501449|
|        3760|   -3.237389|    2.562120|    2.502901|
|        3761|   -3.242344|    2.554059|    2.505068|
|        3762|   -3.246736|    2.545628|    2.507570|
|        3763|   -3.248955|    2.537516|    2.510094|
|        3764|   -3.249340|    2.530387|    2.512407|
|        3765|   -3.249244|    2.524859|    2.514174|
|        3766|   -3.248654|    2.521385|    2.514968|
|        3767|   -3.247395|    2.520032|    2.514415|
|        3768|   -3.245687|    2.520630|    2.512252|
|        3769|   -3.244204|    2.522885|    2.508213|
|        3770|   -3.242531|    2.526401|    2.502165|
|        3771|   -3.240424|    2.530668|    2.494263|
|        3772|   -3.237805|    2.535180|    2.484874|
|        3773|   -3.235096|    2.539548|    2.474368|
|        3774|   -3.233249|    2.543399|    2.463154|
|        3775|   -3.232491|    2.546454|    2.451746|
|        3776|   -3.233082|    2.548613|    2.440687|
|        3777|   -3.235305|    2.549926|    2.430611|
|        3778|   -3.239384|    2.550320|    2.422383|
|        3779|   -3.243763|    2.549810|    2.416940|
|        3780|   -3.247811|    2.548570|    2.414724|
|        3781|   -3.251268|    2.546868|    2.415829|
|        3782|   -3.254863|    2.544981|    2.420096|
|        3783|   -3.257502|    2.543281|    2.426889|
|        3784|   -3.257171|    2.542195|    2.435196|
|        3785|   -3.253653|    2.541966|    2.443996|
|        3786|   -3.247663|    2.542669|    2.452359|
|        3787|   -3.240308|    2.544180|    2.459523|
|        3788|   -3.232719|    2.546259|    2.464842|
|        3789|   -3.225693|    2.548590|    2.467836|
|        3790|   -3.219297|    2.550891|    2.468377|
|        3791|   -3.213220|    2.552944|    2.466656|
|        3792|   -3.208318|    2.554566|    2.462915|
|        3793|   -3.204705|    2.555607|    2.457601|
|        3794|   -3.202528|    2.555992|    2.451229|
|        3795|   -3.202108|    2.555767|    2.444274|
|        3796|   -3.203788|    2.555030|    2.437197|
|        3797|   -3.207091|    2.553896|    2.430578|
|        3798|   -3.211012|    2.552546|    2.425055|
|        3799|   -3.214926|    2.551314|    2.421147|
|        3800|   -3.219726|    2.550396|    2.419033|
|        3801|   -3.224354|    2.550094|    2.418800|
|        3802|   -3.227620|    2.550725|    2.420327|
|        3803|   -3.229034|    2.552441|    2.423299|
|        3804|   -3.228567|    2.555390|    2.427287|
|        3805|   -3.226749|    2.559567|    2.431826|
|        3806|   -3.223511|    2.564832|    2.436678|
|        3807|   -3.219540|    2.571023|    2.441712|
|        3808|   -3.215223|    2.577886|    2.446994|
|        3809|   -3.210690|    2.585297|    2.452958|
|        3810|   -3.206179|    2.593146|    2.459965|
|        3811|   -3.201396|    2.601497|    2.468462|
|        3812|   -3.195923|    2.610458|    2.478668|
|        3813|   -3.189232|    2.620219|    2.490562|
|        3814|   -3.181285|    2.630907|    2.503850|
|        3815|   -3.171928|    2.642606|    2.518168|
|        3816|   -3.161429|    2.655320|    2.533193|
|        3817|   -3.150235|    2.669029|    2.548792|
|        3818|   -3.139636|    2.683530|    2.565080|
|        3819|   -3.130560|    2.698561|    2.582212|
|        3820|   -3.122118|    2.713927|    2.600016|
|        3821|   -3.113341|    2.729292|    2.618208|
|        3822|   -3.104581|    2.744276|    2.636388|
|        3823|   -3.096121|    2.758620|    2.654071|
|        3824|   -3.087627|    2.772186|    2.670899|
|        3825|   -3.079059|    2.784924|    2.686527|
|        3826|   -3.070226|    2.796815|    2.700698|
|        3827|   -3.060907|    2.807897|    2.713295|
|        3828|   -3.051479|    2.818203|    2.724244|
|        3829|   -3.042174|    2.827746|    2.733638|
|        3830|   -3.033866|    2.836537|    2.741519|
|        3831|   -3.027527|    2.844565|    2.747998|
|        3832|   -3.023517|    2.851838|    2.753358|
|        3833|   -3.021407|    2.858410|    2.758103|
|        3834|   -3.020872|    2.864480|    2.762664|
|        3835|   -3.021278|    2.870329|    2.767497|
|        3836|   -3.022487|    2.876284|    2.772939|
|        3837|   -3.024949|    2.882602|    2.779086|
|        3838|   -3.028033|    2.889417|    2.785946|
|        3839|   -3.030602|    2.896776|    2.793384|
|        3840|   -3.031604|    2.904606|    2.801273|
|        3841|   -3.030285|    2.912762|    2.809504|
|        3842|   -3.026266|    2.921109|    2.818013|
|        3843|   -3.019667|    2.929524|    2.826851|
|        3844|   -3.010722|    2.937928|    2.836163|
|        3845|   -3.000334|    2.946329|    2.846082|
|        3846|   -2.989225|    2.954829|    2.856770|
|        3847|   -2.977637|    2.963594|    2.868353|
|        3848|   -2.965855|    2.972833|    2.880734|
|        3849|   -2.954080|    2.982780|    2.893679|
|        3850|   -2.942407|    2.993589|    2.906930|
|        3851|   -2.930489|    3.005228|    2.920275|
|        3852|   -2.918421|    3.017498|    2.933432|
|        3853|   -2.905716|    3.030061|    2.946247|
|        3854|   -2.892398|    3.042514|    2.958584|
|        3855|   -2.879903|    3.054474|    2.970237|
|        3856|   -2.869902|    3.065612|    2.980919|
|        3857|   -2.863709|    3.075672|    2.990334|
|        3858|   -2.861997|    3.084419|    2.998121|
|        3859|   -2.862226|    3.091664|    3.004393|
|        3860|   -2.863553|    3.097262|    3.009355|
|        3861|   -2.865676|    3.101197|    3.013394|
|        3862|   -2.868592|    3.103594|    3.016861|
|        3863|   -2.872964|    3.104799|    3.019901|
|        3864|   -2.878151|    3.105156|    3.022586|
|        3865|   -2.883909|    3.104943|    3.025109|
|        3866|   -2.890067|    3.104359|    3.027607|
|        3867|   -2.895999|    3.103605|    3.030066|
|        3868|   -2.901613|    3.102906|    3.032393|
|        3869|   -2.906601|    3.102406|    3.034573|
|        3870|   -2.911049|    3.102220|    3.036579|
|        3871|   -2.914935|    3.102448|    3.038469|
|        3872|   -2.918790|    3.103167|    3.040329|
|        3873|   -2.922855|    3.104463|    3.042241|
|        3874|   -2.927950|    3.106371|    3.044336|
|        3875|   -2.935002|    3.108831|    3.046657|
|        3876|   -2.942120|    3.111775|    3.049310|
|        3877|   -2.950261|    3.115062|    3.052274|
|        3878|   -2.957400|    3.118603|    3.055527|
|        3879|   -2.962947|    3.122275|    3.058992|
|        3880|   -2.966647|    3.125954|    3.062692|
|        3881|   -2.968683|    3.129563|    3.066640|
|        3882|   -2.969524|    3.133083|    3.070796|
|        3883|   -2.969192|    3.136555|    3.075157|
|        3884|   -2.967861|    3.140045|    3.079604|
|        3885|   -2.965806|    3.143680|    3.083980|
|        3886|   -2.963010|    3.147523|    3.088086|
|        3887|   -2.959912|    3.151614|    3.091731|
|        3888|   -2.956583|    3.155915|    3.094812|
|        3889|   -2.952608|    3.160383|    3.097314|
|        3890|   -2.947282|    3.164981|    3.099342|
|        3891|   -2.940367|    3.169713|    3.101007|
|        3892|   -2.932229|    3.174582|    3.102406|
|        3893|   -2.924147|    3.179573|    3.103575|
|        3894|   -2.918088|    3.184596|    3.104419|
|        3895|   -2.913410|    3.189595|    3.104928|
|        3896|   -2.910483|    3.194379|    3.105114|
|        3897|   -2.909671|    3.198746|    3.105037|
|        3898|   -2.909614|    3.202541|    3.105046|
|        3899|   -2.911189|    3.205689|    3.105277|
|        3900|   -2.912577|    3.208256|    3.106222|
|        3901|   -2.913886|    3.210404|    3.108109|
|        3902|   -2.913796|    3.212379|    3.111246|
|        3903|   -2.912045|    3.214475|    3.115636|
|        3904|   -2.907837|    3.217069|    3.121205|
|        3905|   -2.901785|    3.220467|    3.127662|
|        3906|   -2.893579|    3.224873|    3.134788|
|        3907|   -2.884550|    3.230367|    3.142222|
|        3908|   -2.875360|    3.236902|    3.149678|
|        3909|   -2.865796|    3.244313|    3.157169|
|        3910|   -2.857641|    3.252356|    3.164460|
|        3911|   -2.849232|    3.260819|    3.171800|
|        3912|   -2.841696|    3.269494|    3.179166|
|        3913|   -2.834661|    3.278280|    3.186693|
|        3914|   -2.828259|    3.287164|    3.194379|
|        3915|   -2.821814|    3.296216|    3.202156|
|        3916|   -2.815414|    3.305449|    3.210121|
|        3917|   -2.808220|    3.314915|    3.218174|
|        3918|   -2.799441|    3.324613|    3.226359|
|        3919|   -2.789412|    3.334501|    3.234687|
|        3920|   -2.778624|    3.344514|    3.243213|
|        3921|   -2.767592|    3.354542|    3.252040|
|        3922|   -2.756660|    3.364464|    3.261302|
|        3923|   -2.745840|    3.374203|    3.271137|
|        3924|   -2.735000|    3.383747|    3.281673|
|        3925|   -2.723876|    3.393131|    3.293001|
|        3926|   -2.712210|    3.402465|    3.305171|
|        3927|   -2.700218|    3.411925|    3.318113|
|        3928|   -2.688426|    3.421643|    3.331738|
|        3929|   -2.676856|    3.431737|    3.345979|
|        3930|   -2.665783|    3.442163|    3.360672|
|        3931|   -2.654655|    3.452751|    3.375576|
|        3932|   -2.643305|    3.463222|    3.390246|
|        3933|   -2.632390|    3.473188|    3.404017|
|        3934|   -2.621816|    3.482228|    3.416231|
|        3935|   -2.611909|    3.489936|    3.426440|
|        3936|   -2.603416|    3.496122|    3.434390|
|        3937|   -2.596056|    3.500996|    3.440230|
|        3938|   -2.589425|    3.504661|    3.444399|
|        3939|   -2.583459|    3.507227|    3.447349|
|        3940|   -2.577646|    3.508875|    3.449525|
|        3941|   -2.571478|    3.509754|    3.451346|
|        3942|   -2.564731|    3.510060|    3.453066|
|        3943|   -2.557056|    3.510050|    3.454818|
|        3944|   -2.548392|    3.509983|    3.456610|
|        3945|   -2.538913|    3.510014|    3.458386|
|        3946|   -2.528937|    3.510239|    3.460030|
|        3947|   -2.518868|    3.510706|    3.461425|
|        3948|   -2.509020|    3.511456|    3.462466|
|        3949|   -2.499728|    3.512483|    3.463067|
|        3950|   -2.490959|    3.513732|    3.463293|
|        3951|   -2.482394|    3.515153|    3.463241|
|        3952|   -2.473463|    3.516776|    3.463123|
|        3953|   -2.463791|    3.518587|    3.463242|
|        3954|   -2.452733|    3.520678|    3.463835|
|        3955|   -2.439949|    3.523110|    3.465131|
|        3956|   -2.424981|    3.525998|    3.467183|
|        3957|   -2.407932|    3.529385|    3.470044|
|        3958|   -2.389475|    3.533223|    3.473714|
|        3959|   -2.370560|    3.537420|    3.478082|
|        3960|   -2.352086|    3.541865|    3.483023|
|        3961|   -2.334833|    3.546435|    3.488246|
|        3962|   -2.319040|    3.551068|    3.493592|
|        3963|   -2.304520|    3.555701|    3.498945|
|        3964|   -2.290427|    3.560337|    3.504260|
|        3965|   -2.275600|    3.564964|    3.509495|
|        3966|   -2.258474|    3.569663|    3.514674|
|        3967|   -2.238102|    3.574466|    3.519731|
|        3968|   -2.214090|    3.579400|    3.524792|
|        3969|   -2.187133|    3.584450|    3.529936|
|        3970|   -2.159207|    3.589569|    3.535244|
|        3971|   -2.132658|    3.594687|    3.540727|
|        3972|   -2.109325|    3.599742|    3.546344|
|        3973|   -2.089607|    3.604670|    3.551978|
|        3974|   -2.071892|    3.609386|    3.557478|
|        3975|   -2.052065|    3.613800|    3.562746|
|        3976|   -2.024197|    3.617846|    3.567840|
|        3977|   -1.982992|    3.621459|    3.573067|
|        3978|   -1.927602|    3.624677|    3.578940|
|        3979|   -1.861632|    3.627717|    3.586150|
|        3980|   -1.791701|    3.631115|    3.595550|
|        3981|   -1.727126|    3.635474|    3.607721|
|        3982|   -1.679027|    3.640673|    3.621938|
|        3983|   -1.653522|    3.644722|    3.634780|
|        3984|   -1.631630|    3.646308|    3.644359|
|        3985|   -1.558572|    3.652818|    3.823961|
|        3986|   -1.465771|    4.121388|    3.837873|
|        3987|   -1.224171|    3.897931|    4.043655|
|        3988|   -1.117025|    3.855486|    4.211136|
|        3989|   -1.119987|    3.877653|    4.346852|
|        3990|   -1.101822|    3.925224|    4.447222|
|        3991|   -0.796604|    4.225902|    4.514062|
|        3992|   -0.881673|    4.064576|    4.651080|
|        3993|   -0.713640|    4.576053|    4.670083|
|        3994|   -0.230388|    4.597640|    4.859520|
|        3995|   -0.014284|    4.676225|    5.367850|
|        3996|   -0.004772|    4.504483|    5.396769|
|        3997|   -0.018589|    4.466889|    5.304388|
|        3998|    0.233270|    4.734869|    5.298563|
|        3999|    0.420476|    4.729839|    5.626580|
|        4000|    0.738145|    5.414415|    5.723026|
|        4001|    1.085350|    5.372323|    6.111176|
|        4002|    1.114834|    5.481056|    6.176307|
|        4003|    1.166435|    5.567065|    6.171779|
|        4004|    1.509206|    5.876034|    6.432237|
|        4005|    1.503225|    5.895685|    6.423980|
|        4006|    1.531280|    6.493503|    6.585486|
|        4007|    1.563946|    6.590216|    6.493125|
|        4008|    1.840580|    6.679281|    6.855622|
|        4009|    1.847316|    6.697914|    6.709675|
|        4010|    1.843877|    6.698563|    6.701191|
|        4011|    1.870102|    6.686921|    6.723038|
|        4012|    1.865188|    6.670860|    6.724036|
|        4013|    1.888115|    6.644236|    6.747193|
|        4014|    1.865328|    6.621707|    6.743018|
|        4015|    1.853018|    6.599495|    6.741243|
|        4016|    1.883423|    6.581414|    6.761783|
|        4017|    1.908492|    6.484917|    6.768357|
|        4018|    1.982201|    6.486677|    6.923523|
|        4019|    2.002071|    6.556141|    6.960262|
|        4020|    2.055701|    6.610480|    7.024611|
|        4021|    2.270908|    6.799346|    7.159537|
|        4022|    2.578442|    6.798463|    7.402611|
|        4023|    2.560228|    6.872237|    7.438235|
|        4024|    2.563426|    6.844287|    7.417402|
|        4025|    2.578326|    6.920622|    7.527964|
|        4026|    2.690985|    6.981784|    8.080061|
|        4027|    2.816129|    7.668978|    8.204304|
|        4028|    2.864740|    7.794872|    8.229161|
|        4029|    2.914385|    7.893243|    8.230474|
|        4030|    2.912776|    7.760638|    8.210095|
|        4031|    2.916409|    7.784585|    8.175117|
|        4032|    2.938045|    7.810713|    8.151342|
|        4033|    3.182153|    7.810113|    8.274411|
|        4034|    3.379393|    9.301736|    9.294423|
|        4035|    3.373688|    9.130284|    9.234742|
|        4036|    3.372708|    9.117045|    9.227752|
|        4037|    3.373996|    9.115829|    9.219940|
|        4038|    3.372508|    9.100448|    9.221849|
|        4039|    3.371448|    9.090880|    9.224127|
|        4040|    3.370479|    9.083169|    9.227225|
|        4041|    3.369704|    9.076588|    9.231725|
|        4042|    3.369099|    9.071211|    9.236816|
|        4043|    3.373303|    9.069031|    9.243984|
|        4044|    3.372611|    9.069990|    9.262540|
|        4045|    3.375894|    9.073572|    9.297412|
|        4046|    3.376900|    9.072673|    9.280624|
|        4047|    3.396486|    9.074259|    9.301444|
|        4048|    3.483970|    9.465398|    9.365423|
|        4049|    3.490133|    9.458501|    9.363418|
|        4050|    3.513105|    9.448534|    9.522340|
|        4051|    3.519207|    9.442745|    9.532014|
|        4052|    3.516797|    9.438809|    9.489167|
|        4053|    3.520095|    9.438768|    9.463798|
|        4054|    3.528166|    9.442103|    9.459635|
|        4055|    3.552509|    9.451028|    9.522795|
|        4056|    3.564686|    9.456752|    9.482994|
|        4057|    3.580600|    9.468182|    9.503852|
|        4058|    3.598230|    9.491201|    9.547680|
|        4059|    3.612263|    9.503559|    9.555416|
|        4060|    3.626679|    9.517725|    9.575273|
|        4061|    3.645129|    9.533764|    9.598703|
|        4062|    3.676936|    9.615860|    9.649707|
|        4063|    3.683395|   10.133562|   10.240450|
|        4064|    3.689247|    9.873526|    9.974591|
|        4065|    3.694711|    9.587667|    9.682742|
|        4066|    3.728091|    9.702637|    9.725726|
|        4067|    3.894683|   10.104856|   10.092211|
|        4068|    3.941394|   10.338200|   10.259371|
|        4069|    4.001275|   10.442782|   10.316821|
|        4070|    4.014505|   10.703312|   10.460898|
|        4071|    4.597095|   11.517177|   11.227870|
|        4072|    4.570889|   11.576320|   11.621033|
|        4073|    4.576533|   11.449257|   11.549063|
|        4074|    4.580541|   11.431019|   11.568836|
|        4075|    4.581565|   11.412899|   11.596616|
|        4076|    4.581467|   11.398581|   11.626146|
|        4077|    4.581309|   11.389490|   11.656213|
|        4078|    4.581112|   11.383739|   11.686620|
|        4079|    4.581079|   11.382846|   11.717279|
|        4080|    4.581144|   11.385906|   11.747893|
|        4081|    4.581379|   11.392448|   11.778980|
|        4082|    4.581494|   11.400295|   11.810561|
|        4083|    4.581940|   11.412274|   11.842021|
|        4084|    4.583385|   10.785335|   11.252336|


Error in "void CSolver::SetResidual_RMS(const CGeometry*, const CConfig*)": 
-------------------------------------------------------------------------
SU2 has diverged (Residual > 10^20 detected).
------------------------------ Error Exit -------------------------------


