scsub> Executing:  'cd /home/hem1dev/Codes/SU2_Github_Mark_Test/SU2/Venturi'


WARNING: CONV_CRITERIA is deprecated. SU2 will choose the criteria automatically based on the CONV_FIELD.
That is, RESIDUAL for any RMS_* BGS_* value, and CAUCHY for coefficients such as DRAG etc.


-------------------------------------------------------------------------
|    ___ _   _ ___                                                      |
|   / __| | | |_  )   Release 7.1.1 "Blackbird"                         |
|   \__ \ |_| |/ /                                                      |
|   |___/\___//___|   Suite (Computational Fluid Dynamics Code)         |
|                                                                       |
-------------------------------------------------------------------------
| SU2 Project Website: https://su2code.github.io                        |
|                                                                       |
| The SU2 Project is maintained by the SU2 Foundation                   |
| (http://su2foundation.org)                                            |
-------------------------------------------------------------------------
| Copyright 2012-2021, SU2 Contributors                                 |
|                                                                       |
| SU2 is free software; you can redistribute it and/or                  |
| modify it under the terms of the GNU Lesser General Public            |
| License as published by the Free Software Foundation; either          |
| version 2.1 of the License, or (at your option) any later version.    |
|                                                                       |
| SU2 is distributed in the hope that it will be useful,                |
| but WITHOUT ANY WARRANTY; without even the implied warranty of        |
| MERCHANTABILITY or FITNESS FOR A PARTICULAR PURPOSE. See the GNU      |
| Lesser General Public License for more details.                       |
|                                                                       |
| You should have received a copy of the GNU Lesser General Public      |
| License along with SU2. If not, see <http://www.gnu.org/licenses/>.   |
-------------------------------------------------------------------------


WARNING: CONV_CRITERIA is deprecated. SU2 will choose the criteria automatically based on the CONV_FIELD.
That is, RESIDUAL for any RMS_* BGS_* value, and CAUCHY for coefficients such as DRAG etc.


Parsing config file for zone 0


WARNING: CONV_CRITERIA is deprecated. SU2 will choose the criteria automatically based on the CONV_FIELD.
That is, RESIDUAL for any RMS_* BGS_* value, and CAUCHY for coefficients such as DRAG etc.


----------------- Physical Case Definition ( Zone 0 ) -------------------
Incompressible Laminar Navier-Stokes' equations.
No restart solution, use the values at infinity (freestream).
Dimensional simulation.
The reference area is 1 m^2.
The semi-span will be computed using the max y(3D) value.
The reference length is 1 m.
Input mesh file name: boxVerification.su2

--------------- Space Numerical Integration ( Zone 0 ) ------------------
Flux difference splitting (FDS) upwind scheme for the flow inviscid terms.
Second order integration in space, with slope limiter.
No slope-limiting method. 
Average of gradients with correction (viscous flow terms).
Gradient for upwind reconstruction: Green-Gauss.
Gradient for viscous and source terms: Green-Gauss.

--------------- Time Numerical Integration  ( Zone 0 ) ------------------
Local time stepping (steady state simulation).
Euler implicit method for the flow equations.
FGMRES is used for solving the linear system.
Using a ILU(0) preconditioning.
Convergence criteria of the linear solver: 1e-08.
Max number of linear iterations: 50.
No CFL adaptation.
Courant-Friedrichs-Lewy number:      100

------------------ Convergence Criteria  ( Zone 0 ) ---------------------
Maximum number of solver subiterations: 10000.
Begin convergence monitoring at iteration 10.
Residual minimum value: 1e-10.
Cauchy series min. value: 1e-06.
Number of Cauchy elements: 100.
Begin windowed time average at iteration 0.

-------------------- Output Information ( Zone 0 ) ----------------------
Writing solution files every 1000 iterations.
Writing the convergence history file every 1 inner iterations.
Writing the screen convergence history every 1 inner iterations.
The tabular file format is CSV (.csv).
Convergence history file name: history_smallbox.
Forces breakdown file name: forces_breakdown.dat.
Surface file name: surface_verification_mixtureviscosity_smallbox.
Volume file name: flow_verification_mixtureviscosity_smallbox.
Restart file name: restart_verification_mixtureviscosity_smallbox.dat.

------------- Config File Boundary Information ( Zone 0 ) ---------------
+-----------------------------------------------------------------------+
|                        Marker Type|                        Marker Name|
+-----------------------------------------------------------------------+
|                     Inlet boundary|                      inlet_methane|
|                                   |                          inlet_air|
+-----------------------------------------------------------------------+
|                    Outlet boundary|                             outlet|
+-----------------------------------------------------------------------+
|                     Heat flux wall|                               wall|
+-----------------------------------------------------------------------+

-------------------- Output Preprocessing ( Zone 0 ) --------------------
Screen output fields: INNER_ITER, RMS_PRESSURE, RMS_VELOCITY-X, RMS_VELOCITY-Y, RMS_PASSIVE_SCALAR
History output group(s): RMS_RES, AERO_COEFF, FLOW_COEFF
Ignoring Convergence Field(s): RMS_DENSITY RMS_TKE 
Convergence field(s): RMS_PRESSURE, RMS_VELOCITY-X, RMS_VELOCITY-Y
Warning: No (valid) fields chosen for time convergence monitoring. Time convergence monitoring inactive.
  Info: Ignoring the following volume output fields/groups:
  SOURCE, LOOKUP
Volume output fields: DENSITY, SOLUTION, PRIMITIVE, RESIDUAL, COORDINATES

------------------- Geometry Preprocessing ( Zone 0 ) -------------------
Two dimensional problem.
380 grid points before partitioning.
342 volume elements before partitioning.
4 surface markers.
9 boundary elements in index 0 (Marker = inlet_air).
9 boundary elements in index 1 (Marker = inlet_methane).
18 boundary elements in index 2 (Marker = outlet).
38 boundary elements in index 3 (Marker = wall).
Executing the partitioning functions.
Building the graph adjacency structure.
Calling ParMETIS... graph partitioning complete (349 edge cuts).
Distributing ParMETIS coloring.
Rebalancing vertices.
Rebalancing volume element connectivity.
Rebalancing markers and surface elements.
1306 vertices including ghost points. 
737 interior elements including halo cells. 
737 quadrilaterals.
Establishing MPI communication patterns.
Setting point connectivity.
Renumbering points (Reverse Cuthill McKee Ordering).
Recomputing point connectivity.
Setting element connectivity.
Checking the numerical grid orientation.
There has been a re-orientation of 737 QUADRILATERAL volume elements.
There has been a re-orientation of 90 LINE surface elements.
Identifying edges and vertices.
Setting the control volume structure.
Area of the computational grid: 8.61988.
Searching for the closest normal neighbors to the surfaces.
Storing a mapping from global to local point index.
Compute the surface curvature.
Max K: 13.0671. Mean K: 1.32326. Standard deviation K: 3.9421.
Checking for periodicity.
Computing mesh quality statistics for the dual control volumes.
+--------------------------------------------------------------+
|           Mesh Quality Metric|        Minimum|        Maximum|
+--------------------------------------------------------------+
|    Orthogonality Angle (deg.)|             90|             90|
|     CV Face Area Aspect Ratio|        1.05556|        2.11111|
|           CV Sub-Volume Ratio|              1|              1|
+--------------------------------------------------------------+
Finding max control volume width.
Communicating number of neighbors.
Wetted area = 0 m.
Area projection in the x-plane = 0 m, y-plane = 0 m.
Max. coordinate in the x-direction = -1e+10 m, y-direction = -1e+10 m.
Min. coordinate in the x-direction = 1e+10 m, y-direction = 1e+10 m.
Computing wall distances.

-------------------- Solver Preprocessing ( Zone 0 ) --------------------
Incompressible flow: rho_ref, vel_ref, temp_ref, p_ref
are set to 1.0 in order to perform a dimensional calculation.
Force coefficients computed using initial values.
The reference area for force coeffs. is 1 m^2.
The reference length for force coeffs. is 1 m.
The pressure is decomposed into thermodynamic and dynamic components.
The initial value of the dynamic pressure is 0.
Mach number: 0, computed using fluid speed of sound.
For external flows, the initial state is imposed at the far-field.
Angle of attack (deg): 0, computed using the initial velocity.
Side slip angle (deg): 0, computed using the initial velocity.
Reynolds number per meter: 66852.4, computed using initial values.
Reynolds number is a byproduct of inputs only (not used internally).
SI units only. The grid should be dimensional (meters).
Energy equation is active and coupled for variable density.

-- Models:
+------------------------------------------------------------------------------+
|          Viscosity Model|        Conductivity Model|              Fluid Model|
+------------------------------------------------------------------------------+
|               SUTHERLAND|          CONSTANT_PRANDTL|+------------------------------------------------------------------------------+
-- Fluid properties:
+------------------------------------------------------------------------------+
|                  Name|    Dim. value|    Ref. value|      Unit|Non-dim. value|
+------------------------------------------------------------------------------+
|        Ref. Viscosity|     1.716e-05|             1|   N.s/m^2|     1.716e-05|
|      Sutherland Temp.|        273.15|             1|         K|        273.15|
|     Sutherland Const.|         110.4|             1|         K|         110.4|
+------------------------------------------------------------------------------+
|        Prandtl (Lam.)|             -|             -|         -|          0.72|
|       Prandtl (Turb.)|             -|             -|         -|           0.9|
+------------------------------------------------------------------------------+
-- Initial and free-stream conditions:
+------------------------------------------------------------------------------+
|                  Name|    Dim. value|    Ref. value|      Unit|Non-dim. value|
+------------------------------------------------------------------------------+
|      Dynamic Pressure|             0|             1|        Pa|             0|
|        Total Pressure|           0.6|             1|        Pa|           0.6|
|               Density|           1.2|             1|    kg/m^3|           1.2|
|           Temperature|           300|             1|         K|           300|
|            Velocity-X|             1|             1|       m/s|             1|
|            Velocity-Y|             0|             1|       m/s|             0|
|    Velocity Magnitude|             1|             1|       m/s|             1|
+------------------------------------------------------------------------------+
|             Viscosity|     1.795e-05|             1|   N.s/m^2|     1.795e-05|
|          Conductivity|             -|             1|   W/m^2.K|             -|
+------------------------------------------------------------------------------+
|           Mach Number|             -|             -|         -|             0|
|       Reynolds Number|             -|             -|         -|       66852.4|
+------------------------------------------------------------------------------+
Initialize Jacobian structure (Navier-Stokes). MG level: 0.
Initialize Jacobian structure (passive scalar model).

------------------- Numerics Preprocessing ( Zone 0 ) -------------------

----------------- Integration Preprocessing ( Zone 0 ) ------------------

------------------- Iteration Preprocessing ( Zone 0 ) ------------------
Euler/Navier-Stokes/RANS fluid iteration.

------------------------------ Begin Solver -----------------------------

Simulation Run using the Single-zone Driver
Initializing passive scalar (initial condition).
initialization = 1 1
+----------------------------------------------------------------+
|  Inner_Iter|      rms[P]|      rms[U]|      rms[V]|      rms[c]|
+----------------------------------------------------------------+
|           0|   -3.480908|   -3.487203|  -21.019372|   -3.648734|
|           1|   -2.510410|   -3.359229|   -4.737623|   -1.807430|
|           2|   -2.576072|   -2.634116|   -3.053093|   -2.122066|
|           3|   -2.687049|   -2.862959|   -3.060961|   -2.410379|
|           4|   -2.795955|   -3.101506|   -3.100734|   -2.690541|
|           5|   -2.914901|   -3.325005|   -3.150362|   -2.965897|
|           6|   -3.035303|   -3.355458|   -3.220136|   -3.092424|
|           7|   -3.151875|   -3.289122|   -3.309403|   -3.214625|
|           8|   -3.281605|   -3.332581|   -3.401693|   -3.276794|
|           9|   -3.427900|   -3.474786|   -3.503925|   -3.279460|
|          10|   -3.583283|   -3.720679|   -3.613812|   -3.275643|
|          11|   -3.742625|   -3.907487|   -3.724454|   -3.272011|
|          12|   -3.883328|   -3.806969|   -3.847594|   -3.272081|
|          13|   -3.999226|   -3.764241|   -3.995620|   -3.272922|
|          14|   -4.120949|   -3.828251|   -4.158601|   -3.272542|
|          15|   -4.264797|   -4.005464|   -4.324332|   -3.272077|
|          16|   -4.423918|   -4.319790|   -4.490788|   -3.272011|
|          17|   -4.542111|   -4.437840|   -4.648207|   -3.271705|
|          18|   -4.591518|   -4.287069|   -4.774631|   -3.271126|
|          19|   -4.652766|   -4.263944|   -4.861462|   -3.270656|
|          20|   -4.770947|   -4.362996|   -4.926220|   -3.270271|
|          21|   -4.962345|   -4.598009|   -4.986609|   -3.269834|
|          22|   -5.194661|   -4.942003|   -5.064370|   -3.269442|
|          23|   -5.216980|   -4.820901|   -5.185852|   -3.269166|
|          24|   -5.150735|   -4.697410|   -5.354302|   -3.268931|
|          25|   -5.156567|   -4.710645|   -5.514368|   -3.268705|
|          26|   -5.217340|   -4.833920|   -5.564450|   -3.268516|
|          27|   -5.288258|   -5.061686|   -5.546962|   -3.268348|
|          28|   -5.313288|   -5.267413|   -5.562498|   -3.268306|
|          29|   -5.306544|   -5.209517|   -5.645215|   -3.269095|
|          30|   -5.321090|   -5.168081|   -5.800758|   -3.268970|
|          31|   -5.376001|   -5.231695|   -5.965539|   -3.268919|
|          32|   -5.465880|   -5.402746|   -5.899074|   -3.268946|
|          33|   -5.550708|   -5.650650|   -5.747361|   -3.268941|
|          34|   -5.552501|   -5.662108|   -5.654563|   -3.268881|
|          35|   -5.483363|   -5.525073|   -5.618993|   -3.268781|
|          36|   -5.415976|   -5.457856|   -5.631580|   -3.268661|
|          37|   -5.378751|   -5.445994|   -5.690983|   -3.268536|
|          38|   -5.376807|   -5.471743|   -5.801812|   -3.268421|
|          39|   -5.410540|   -5.536360|   -5.958869|   -3.268329|
|          40|   -5.476718|   -5.655682|   -6.046624|   -3.268274|
|          41|   -5.556133|   -5.828720|   -5.931173|   -3.268259|
|          42|   -5.592065|   -5.842522|   -5.795372|   -3.268289|
|          43|   -5.545624|   -5.652798|   -5.711474|   -3.268358|
|          44|   -5.469567|   -5.511781|   -5.677741|   -3.268457|
|          45|   -5.412832|   -5.440672|   -5.690097|   -3.268569|
|          46|   -5.389325|   -5.428360|   -5.749735|   -3.268677|
|          47|   -5.400978|   -5.471473|   -5.861155|   -3.268764|
|          48|   -5.446790|   -5.575212|   -6.006791|   -3.268816|
|          49|   -5.519544|   -5.744615|   -6.040140|   -3.268822|
|          50|   -5.588438|   -5.869209|   -5.906298|   -3.268779|
|          51|   -5.592726|   -5.733672|   -5.781151|   -3.268689|
|          52|   -5.528358|   -5.575395|   -5.708005|   -3.268560|
|          53|   -5.455911|   -5.480934|   -5.683885|   -3.268404|
|          54|   -5.409219|   -5.441925|   -5.706368|   -3.268235|
|          55|   -5.396425|   -5.451772|   -5.778219|   -3.268068|
|          56|   -5.418528|   -5.511518|   -5.903944|   -3.267919|
|          57|   -5.473868|   -5.629082|   -6.047825|   -3.267798|
|          58|   -5.551818|   -5.801635|   -6.029805|   -3.267712|
|          59|   -5.612993|   -5.871003|   -5.884757|   -3.267665|
|          60|   -5.600518|   -5.716354|   -5.773424|   -3.267653|
|          61|   -5.532759|   -5.575120|   -5.716377|   -3.267694|
|          62|   -5.468089|   -5.496276|   -5.708842|   -3.267761|
|          63|   -5.431935|   -5.471824|   -5.749503|   -3.267826|
|          64|   -5.429814|   -5.497707|   -5.842150|   -3.267875|
|          65|   -5.462070|   -5.577429|   -5.985240|   -3.267891|
|          66|   -5.525120|   -5.719393|   -6.089770|   -3.267864|
|          67|   -5.600020|   -5.884859|   -5.993819|   -3.267787|
|          68|   -5.633300|   -5.836553|   -5.851982|   -3.267661|
|          69|   -5.587947|   -5.664672|   -5.759201|   -3.267493|
|          70|   -5.512233|   -5.545379|   -5.717660|   -3.267387|
|          71|   -5.453941|   -5.484762|   -5.723047|   -3.267283|
|          72|   -5.427890|   -5.474472|   -5.776003|   -3.267172|
|          73|   -5.436674|   -5.512904|   -5.881532|   -3.267075|
|          74|   -5.479884|   -5.605800|   -6.030975|   -3.267005|
|          75|   -5.552178|   -5.761532|   -6.097165|   -3.266971|
|          76|   -5.628324|   -5.913732|   -5.973543|   -3.266976|
|          77|   -5.649297|   -5.822166|   -5.842786|   -3.267021|
|          78|   -5.595504|   -5.657761|   -5.765415|   -3.267098|
|          79|   -5.524301|   -5.553949|   -5.739278|   -3.267200|
|          80|   -5.475573|   -5.508685|   -5.761141|   -3.267311|
|          81|   -5.459984|   -5.514905|   -5.833079|   -3.267416|
|          82|   -5.479088|   -5.573041|   -5.958929|   -3.267503|
|          83|   -5.531311|   -5.690655|   -6.101559|   -3.267559|
|          84|   -5.605925|   -5.863003|   -6.080726|   -3.267578|
|          85|   -5.663043|   -5.920850|   -5.934227|   -3.267558|
|          86|   -5.645744|   -5.758499|   -5.820793|   -3.267502|
|          87|   -5.573768|   -5.615249|   -5.760403|   -3.267418|
|          88|   -5.505779|   -5.533709|   -5.748214|   -3.267317|
|          89|   -5.466880|   -5.505070|   -5.782772|   -3.267211|
|          90|   -5.462408|   -5.524957|   -5.867859|   -3.267115|
|          91|   -5.492778|   -5.596357|   -6.005356|   -3.267040|
|          92|   -5.555336|   -5.728455|   -6.129680|   -3.266995|
|          93|   -5.634937|   -5.904829|   -6.060954|   -3.266986|
|          94|   -5.683089|   -5.913783|   -5.917220|   -3.267014|
|          95|   -5.652046|   -5.744336|   -5.819225|   -3.267075|
|          96|   -5.580162|   -5.616244|   -5.774329|   -3.267163|
|          97|   -5.520695|   -5.550079|   -5.777968|   -3.267263|
|          98|   -5.492241|   -5.537080|   -5.830176|   -3.267365|
|          99|   -5.498331|   -5.574738|   -5.935449|   -3.267453|
|         100|   -5.538704|   -5.668200|   -6.084557|   -3.267517|
|         101|   -5.607970|   -5.824404|   -6.149313|   -3.267548|
|         102|   -5.680537|   -5.966564|   -6.023991|   -3.267542|
|         103|   -5.696986|   -5.862011|   -5.891331|   -3.267502|
|         104|   -5.638888|   -5.697367|   -5.811206|   -3.267433|
|         105|   -5.564376|   -5.592868|   -5.781289|   -3.267343|
|         106|   -5.512991|   -5.545012|   -5.798221|   -3.267245|
|         107|   -5.495132|   -5.546777|   -5.863943|   -3.267150|
|         108|   -5.512273|   -5.598366|   -5.983274|   -3.267071|
|         109|   -5.563150|   -5.707179|   -6.131040|   -3.267018|
|         110|   -5.638934|   -5.876195|   -6.139386|   -3.266996|
|         111|   -5.704621|   -5.978302|   -5.997369|   -3.267010|
|         112|   -5.701070|   -5.835364|   -5.879249|   -3.267056|
|         113|   -5.635716|   -5.684474|   -5.815260|   -3.267130|
|         114|   -5.568120|   -5.596802|   -5.800978|   -3.267221|
|         115|   -5.527588|   -5.564747|   -5.834399|   -3.267316|
|         116|   -5.520904|   -5.583030|   -5.918788|   -3.267405|
|         117|   -5.548864|   -5.653970|   -6.055878|   -3.267474|
|         118|   -5.609134|   -5.786156|   -6.181795|   -3.267514|
|         119|   -5.687196|   -5.960566|   -6.115263|   -3.267522|
|         120|   -5.734810|   -5.961724|   -5.970086|   -3.267497|
|         121|   -5.702153|   -5.790365|   -5.869434|   -3.267442|
|         122|   -5.627118|   -5.661189|   -5.821173|   -3.267364|
|         123|   -5.564456|   -5.592722|   -5.820658|   -3.267275|
|         124|   -5.533252|   -5.576129|   -5.867784|   -3.267185|
|         125|   -5.536979|   -5.608760|   -5.967212|   -3.267105|
|         126|   -5.575277|   -5.695456|   -6.113971|   -3.267046|
|         127|   -5.643189|   -5.844782|   -6.197209|   -3.267015|
|         128|   -5.717665|   -6.003415|   -6.083205|   -3.267015|
|         129|   -5.742293|   -5.929511|   -5.947253|   -3.267048|
|         130|   -5.691841|   -5.761490|   -5.863510|   -3.267108|
|         131|   -5.619745|   -5.651271|   -5.831215|   -3.267188|
|         132|   -5.568024|   -5.599804|   -5.846572|   -3.267277|
|         133|   -5.548755|   -5.599425|   -5.910966|   -3.267363|
|         134|   -5.564034|   -5.649622|   -6.028977|   -3.267435|
|         135|   -5.613151|   -5.757248|   -6.178162|   -3.267484|
|         136|   -5.688564|   -5.925493|   -6.195632|   -3.267503|
|         137|   -5.757297|   -6.031555|   -6.055222|   -3.267491|
|         138|   -5.757440|   -5.890585|   -5.934350|   -3.267449|
|         139|   -5.690757|   -5.737403|   -5.866932|   -3.267384|
|         140|   -5.619411|   -5.646739|   -5.848787|   -3.267304|
|         141|   -5.575279|   -5.611141|   -5.877781|   -3.267219|
|         142|   -5.565566|   -5.625119|   -5.957126|   -3.267140|
|         143|   -5.590865|   -5.690696|   -6.089873|   -3.267077|
|         144|   -5.648610|   -5.816484|   -6.222703|   -3.267038|
|         145|   -5.724909|   -5.991028|   -6.170938|   -3.267028|
|         146|   -5.774593|   -6.017894|   -6.024615|   -3.267047|
|         147|   -5.747962|   -5.849831|   -5.920355|   -3.267094|
|         148|   -5.676819|   -5.715876|   -5.869455|   -3.267163|
|         149|   -5.615117|   -5.643862|   -5.867036|   -3.267244|
|         150|   -5.583337|   -5.624889|   -5.912433|   -3.267326|
|         151|   -5.585727|   -5.655651|   -6.009853|   -3.267399|
|         152|   -5.622543|   -5.740375|   -6.155796|   -3.267454|
|         153|   -5.690116|   -5.887690|   -6.249215|   -3.267483|
|         154|   -5.768183|   -6.051771|   -6.143585|   -3.267482|
|         155|   -5.800244|   -5.990455|   -6.005651|   -3.267454|
|         156|   -5.751930|   -5.820578|   -5.918311|   -3.267401|
|         157|   -5.676333|   -5.706406|   -5.882143|   -3.267330|
|         158|   -5.620283|   -5.650982|   -5.893278|   -3.267251|
|         159|   -5.597293|   -5.646372|   -5.952976|   -3.267175|
|         160|   -5.609401|   -5.691712|   -6.066224|   -3.267109|
|         161|   -5.655540|   -5.793548|   -6.215927|   -3.267064|
|         162|   -5.728093|   -5.957063|   -6.248645|   -3.267044|
|         163|   -5.795916|   -6.077881|   -6.111060|   -3.267052|
|         164|   -5.800155|   -5.949081|   -5.986461|   -3.267086|
|         165|   -5.738349|   -5.792164|   -5.915940|   -3.267144|
|         166|   -5.668997|   -5.697735|   -5.895551|   -3.267216|
|         167|   -5.624880|   -5.659511|   -5.922624|   -3.267293|
|         168|   -5.614165|   -5.671449|   -5.999813|   -3.267365|
|         169|   -5.638053|   -5.734964|   -6.130358|   -3.267423|
|         170|   -5.694913|   -5.858291|   -6.267798|   -3.267460|
|         171|   -5.773071|   -6.033560|   -6.229223|   -3.267470|
|         172|   -5.829476|   -6.076095|   -6.083459|   -3.267453|
|         173|   -5.807668|   -5.910319|   -5.975822|   -3.267411|
|         174|   -5.734321|   -5.772258|   -5.921075|   -3.267351|
|         175|   -5.668199|   -5.696053|   -5.914491|   -3.267279|
|         176|   -5.632334|   -5.672782|   -5.955242|   -3.267206|
|         177|   -5.631233|   -5.698732|   -6.047589|   -3.267140|
|         178|   -5.664885|   -5.777707|   -6.190729|   -3.267090|
|         179|   -5.729508|   -5.918732|   -6.297214|   -3.267062|
|         180|   -5.806199|   -6.088307|   -6.202795|   -3.267059|
|         181|   -5.842229|   -6.051073|   -6.061630|   -3.267083|
|         182|   -5.800608|   -5.880209|   -5.970404|   -3.267129|
|         183|   -5.728203|   -5.761344|   -5.931463|   -3.267191|
|         184|   -5.672511|   -5.702612|   -5.940493|   -3.267262|
|         185|   -5.648594|   -5.695706|   -5.998174|   -3.267332|
|         186|   -5.659217|   -5.739157|   -6.109102|   -3.267392|
|         187|   -5.703910|   -5.838988|   -6.258492|   -3.267434|
|         188|   -5.776287|   -6.000891|   -6.301180|   -3.267453|
|         189|   -5.847243|   -6.128493|   -6.167589|   -3.267447|
|         190|   -5.855703|   -6.005636|   -6.040498|   -3.267416|
|         191|   -5.792984|   -5.845858|   -5.966450|   -3.267366|
|         192|   -5.719750|   -5.747697|   -5.942087|   -3.267302|
|         193|   -5.671675|   -5.705439|   -5.964600|   -3.267233|
|         194|   -5.657472|   -5.712694|   -6.036518|   -3.267168|
|         195|   -5.678201|   -5.770420|   -6.162272|   -3.267115|
|         196|   -5.732212|   -5.886619|   -6.306714|   -3.267080|
|         197|   -5.809074|   -6.059900|   -6.290022|   -3.267069|
|         198|   -5.869998|   -6.134125|   -6.144662|   -3.267081|
|         199|   -5.857980|   -5.977911|   -6.032329|   -3.267117|
|         200|   -5.790095|   -5.834006|   -5.974038|   -3.267170|
|         201|   -5.724769|   -5.753187|   -5.965000|   -3.267234|
|         202|   -5.687882|   -5.726980|   -6.003813|   -3.267300|
|         203|   -5.685133|   -5.751002|   -6.094206|   -3.267360|
|         204|   -5.716987|   -5.828513|   -6.235509|   -3.267406|
|         205|   -5.780205|   -5.968146|   -6.345029|   -3.267432|
|         206|   -5.856873|   -6.137094|   -6.255714|   -3.267435|
|         207|   -5.894148|   -6.101268|   -6.113381|   -3.267415|
|         208|   -5.851500|   -5.929063|   -6.019247|   -3.267374|
|         209|   -5.775740|   -5.807623|   -5.976747|   -3.267319|
|         210|   -5.716476|   -5.745598|   -5.981521|   -3.267255|
|         211|   -5.689319|   -5.734496|   -6.034054|   -3.267193|
|         212|   -5.696951|   -5.772464|   -6.139288|   -3.267138|
|         213|   -5.738896|   -5.865044|   -6.288902|   -3.267099|
|         214|   -5.809759|   -6.020355|   -6.356557|   -3.267079|
|         215|   -5.884538|   -6.171544|   -6.232991|   -3.267082|
|         216|   -5.905015|   -6.079483|   -6.101275|   -3.267107|
|         217|   -5.851402|   -5.914876|   -6.022830|   -3.267151|
|         218|   -5.780108|   -5.810464|   -5.995483|   -3.267208|
|         219|   -5.731021|   -5.764246|   -6.015911|   -3.267270|
|         220|   -5.715009|   -5.769145|   -6.086094|   -3.267329|
|         221|   -5.733761|   -5.825504|   -6.210056|   -3.267377|
|         222|   -5.785913|   -5.940855|   -6.353788|   -3.267409|
|         223|   -5.861375|   -6.112651|   -6.340143|   -3.267420|
|         224|   -5.921331|   -6.181483|   -6.194774|   -3.267409|
|         225|   -5.907251|   -6.022632|   -6.080221|   -3.267378|
|         226|   -5.835986|   -5.877340|   -6.018891|   -3.267331|
|         227|   -5.767306|   -5.794198|   -6.006066|   -3.267274|
|         228|   -5.727404|   -5.764547|   -6.040169|   -3.267214|
|         229|   -5.721842|   -5.783765|   -6.124883|   -3.267159|
|         230|   -5.751009|   -5.854629|   -6.262297|   -3.267117|
|         231|   -5.812241|   -5.986161|   -6.388426|   -3.267091|
|         232|   -5.890683|   -6.162246|   -6.321587|   -3.267086|
|         233|   -5.938808|   -6.172614|   -6.177060|   -3.267102|
|         234|   -5.908755|   -6.003228|   -6.077914|   -3.267137|
|         235|   -5.837228|   -5.874385|   -6.031841|   -3.267185|
|         236|   -5.777473|   -5.807270|   -6.034193|   -3.267242|
|         237|   -5.748538|   -5.793124|   -6.084902|   -3.267299|
|         238|   -5.754155|   -5.829365|   -6.188428|   -3.267349|
|         239|   -5.794169|   -5.921048|   -6.336505|   -3.267385|
|         240|   -5.863418|   -6.075546|   -6.405500|   -3.267402|
|         241|   -5.936963|   -6.221761|   -6.283056|   -3.267400|
|         242|   -5.955493|   -6.123487|   -6.149688|   -3.267378|
|         243|   -5.898486|   -5.957698|   -6.068609|   -3.267339|
|         244|   -5.823713|   -5.851665|   -6.037932|   -3.267288|
|         245|   -5.771570|   -5.802698|   -6.054206|   -3.267233|
|         246|   -5.752760|   -5.803577|   -6.119242|   -3.267179|
|         247|   -5.768793|   -5.854274|   -6.237946|   -3.267135|
|         248|   -5.818474|   -5.961985|   -6.387062|   -3.267105|
|         249|   -5.893424|   -6.130276|   -6.400914|   -3.267092|
|         250|   -5.959995|   -6.237509|   -6.259469|   -3.267100|
|         251|   -5.959166|   -6.097910|   -6.139911|   -3.267126|
|         252|   -5.895170|   -5.945774|   -6.074498|   -3.267167|
|         253|   -5.827313|   -5.856669|   -6.058852|   -3.267218|
|         254|   -5.786052|   -5.823283|   -6.090853|   -3.267272|
|         255|   -5.778633|   -5.840222|   -6.173673|   -3.267321|
|         256|   -5.805953|   -5.909699|   -6.309213|   -3.267360|
|         257|   -5.865698|   -6.040278|   -6.435986|   -3.267384|
|         258|   -5.943482|   -6.214366|   -6.372675|   -3.267389|
|         259|   -5.991402|   -6.219679|   -6.227349|   -3.267375|
|         260|   -5.959283|   -6.048403|   -6.125772|   -3.267344|
|         261|   -5.884217|   -5.917989|   -6.076650|   -3.267300|
|         262|   -5.821058|   -5.848447|   -6.075310|   -3.267250|
|         263|   -5.789079|   -5.830862|   -6.121503|   -3.267199|
|         264|   -5.791807|   -5.862369|   -6.219832|   -3.267153|
|         265|   -5.828975|   -5.947559|   -6.366572|   -3.267120|
|         266|   -5.896073|   -6.095216|   -6.456615|   -3.267102|
|         267|   -5.971554|   -6.258221|   -6.347046|   -3.267102|
|         268|   -6.000242|   -6.194824|   -6.209728|   -3.267120|
|         269|   -5.952885|   -6.026045|   -6.124203|   -3.267154|
|         270|   -5.880945|   -5.913676|   -6.090325|   -3.267198|
|         271|   -5.828297|   -5.860444|   -6.104185|   -3.267248|
|         272|   -5.808006|   -5.858548|   -6.167050|   -3.267296|
|         273|   -5.822384|   -5.907316|   -6.283466|   -3.267337|
|         274|   -5.870704|   -6.013496|   -6.431909|   -3.267365|
|         275|   -5.945349|   -6.180440|   -6.451829|   -3.267376|
|         276|   -6.013398|   -6.287343|   -6.311979|   -3.267370|
|         277|   -6.013262|   -6.147060|   -6.190214|   -3.267347|
|         278|   -5.946498|   -5.992948|   -6.121849|   -3.267310|
|         279|   -5.874823|   -5.901291|   -6.102782|   -3.267265|
|         280|   -5.830061|   -5.864702|   -6.130743|   -3.267217|
|         281|   -5.819446|   -5.877521|   -6.208804|   -3.267172|
|         282|   -5.843635|   -5.941520|   -6.340494|   -3.267136|
|         283|   -5.900367|   -6.065192|   -6.477497|   -3.267113|
|         284|   -5.976927|   -6.240425|   -6.434461|   -3.267107|
|         285|   -6.030269|   -6.281523|   -6.288013|   -3.267118|
|         286|   -6.008310|   -6.116246|   -6.181757|   -3.267144|
|         287|   -5.938399|   -5.979735|   -6.129051|   -3.267182|
|         288|   -5.875919|   -5.905514|   -6.125006|   -3.267228|
|         289|   -5.842984|   -5.884765|   -6.168813|   -3.267274|
|         290|   -5.844304|   -5.913962|   -6.264585|   -3.267315|
|         291|   -5.880185|   -5.997182|   -6.409199|   -3.267346|
|         292|   -5.946901|   -6.143019|   -6.504290|   -3.267363|
|         293|   -6.024211|   -6.306757|   -6.400556|   -3.267363|
|         294|   -6.055920|   -6.246868|   -6.261865|   -3.267347|
|         295|   -6.007604|   -6.076295|   -6.173460|   -3.267317|
|         296|   -5.931773|   -5.961075|   -6.136294|   -3.267278|
|         297|   -5.875150|   -5.904636|   -6.146396|   -3.267233|
|         298|   -5.851303|   -5.898919|   -6.204861|   -3.267189|
|         299|   -5.862311|   -5.942842|   -6.316726|   -3.267152|
|         300|   -5.907245|   -6.042701|   -6.467365|   -3.267126|
|         301|   -5.979152|   -6.204650|   -6.509126|   -3.267114|
|         302|   -6.048808|   -6.334862|   -6.374184|   -3.267119|
|         303|   -6.057708|   -6.214948|   -6.247760|   -3.267138|
|         304|   -5.998480|   -6.056044|   -6.175325|   -3.267170|
|         305|   -5.928950|   -5.959198|   -6.153226|   -3.267210|
|         306|   -5.883810|   -5.919028|   -6.178648|   -3.267254|
|         307|   -5.872018|   -5.929265|   -6.254111|   -3.267294|
|         308|   -5.894947|   -5.991131|   -6.382978|   -3.267327|
|         309|   -5.951001|   -6.112758|   -6.521039|   -3.267348|
|         310|   -6.028663|   -6.287114|   -6.486406|   -3.267354|
|         311|   -6.085326|   -6.332942|   -6.340617|   -3.267345|
|         312|   -6.064206|   -6.167562|   -6.231797|   -3.267322|
|         313|   -5.990849|   -6.028203|   -6.175944|   -3.267288|
|         314|   -5.924120|   -5.950807|   -6.168328|   -3.267247|
|         315|   -5.887355|   -5.926421|   -6.207966|   -3.267206|
|         316|   -5.885137|   -5.951130|   -6.299015|   -3.267168|
|         317|   -5.917490|   -6.028487|   -6.441504|   -3.267140|
|         318|   -5.980893|   -6.167544|   -6.553453|   -3.267123|
|         319|   -6.057578|   -6.339531|   -6.464657|   -3.267122|
|         320|   -6.096553|   -6.313805|   -6.322379|   -3.267134|
|         321|   -6.058228|   -6.143039|   -6.229268|   -3.267160|
|         322|   -5.986518|   -6.021897|   -6.188608|   -3.267195|
|         323|   -5.930174|   -5.961208|   -6.195981|   -3.267235|
|         324|   -5.905322|   -5.952567|   -6.251908|   -3.267275|
|         325|   -5.915049|   -5.994292|   -6.360949|   -3.267309|
|         326|   -5.959001|   -6.092246|   -6.509651|   -3.267333|
|         327|   -6.031042|   -6.252543|   -6.557225|   -3.267344|
|         328|   -6.102742|   -6.383760|   -6.425671|   -3.267340|
|         329|   -6.112941|   -6.264759|   -6.297460|   -3.267323|
|         330|   -6.050847|   -6.103595|   -6.222163|   -3.267295|
|         331|   -5.977019|   -6.003906|   -6.196712|   -3.267259|
|         332|   -5.927936|   -5.960390|   -6.218174|   -3.267220|
|         333|   -5.912552|   -5.966456|   -6.288935|   -3.267183|
|         334|   -5.931936|   -6.022824|   -6.413613|   -3.267153|
|         335|   -5.984487|   -6.137287|   -6.560008|   -3.267133|
|         336|   -6.060279|   -6.309737|   -6.550102|   -3.267126|
|         337|   -6.122128|   -6.392173|   -6.405007|   -3.267133|
|         338|   -6.113114|   -6.239485|   -6.290896|   -3.267153|
|         339|   -6.046797|   -6.093758|   -6.230899|   -3.267182|
|         340|   -5.981328|   -6.011062|   -6.220231|   -3.267218|
|         341|   -5.943719|   -5.983164|   -6.257329|   -3.267256|
|         342|   -5.940163|   -6.005486|   -6.345792|   -3.267290|
|         343|   -5.971302|   -6.081102|   -6.485473|   -3.267316|
|         344|   -6.034139|   -6.218709|   -6.598210|   -3.267331|
|         345|   -6.111446|   -6.388944|   -6.513878|   -3.267333|
|         346|   -6.150961|   -6.360848|   -6.371037|   -3.267322|
|         347|   -6.109903|   -6.188267|   -6.275546|   -3.267299|
|         348|   -6.033822|   -6.064961|   -6.231852|   -3.267268|
|         349|   -5.973494|   -6.001441|   -6.235542|   -3.267232|
|         350|   -5.945084|   -5.989065|   -6.286955|   -3.267196|
|         351|   -5.951332|   -6.025735|   -6.391001|   -3.267165|
|         352|   -5.991742|   -6.116737|   -6.540692|   -3.267143|
|         353|   -6.061114|   -6.270377|   -6.614401|   -3.267132|
|         354|   -6.135546|   -6.425150|   -6.493515|   -3.267133|
|         355|   -6.158304|   -6.340332|   -6.360215|   -3.267147|
|         356|   -6.107084|   -6.174758|   -6.279997|   -3.267172|
|         357|   -6.036260|   -6.068467|   -6.251009|   -3.267203|
|         358|   -5.986674|   -6.020557|   -6.269769|   -3.267238|
|         359|   -5.969912|   -6.023807|   -6.338092|   -3.267272|
|         360|   -5.987922|   -6.078369|   -6.460072|   -3.267299|
|         361|   -6.039528|   -6.191660|   -6.604273|   -3.267318|
|         362|   -6.115127|   -6.362492|   -6.596876|   -3.267324|
|         363|   -6.176797|   -6.438614|   -6.452533|   -3.267318|
|         364|   -6.164903|   -6.282252|   -6.336675|   -3.267301|
|         365|   -6.093881|   -6.135062|   -6.274038|   -3.267274|
|         366|   -6.024250|   -6.050208|   -6.260038|   -3.267242|
|         367|   -5.983088|   -6.019140|   -6.292955|   -3.267208|
|         368|   -5.976132|   -6.036981|   -6.376357|   -3.267177|
|         369|   -6.003750|   -6.106239|   -6.512887|   -3.267153|
|         370|   -6.063368|   -6.235795|   -6.643114|   -3.267138|
|         371|   -6.140892|   -6.412248|   -6.582564|   -3.267135|
|         372|   -6.190722|   -6.432616|   -6.437168|   -3.267144|
|         373|   -6.163995|   -6.264544|   -6.336062|   -3.267163|
|         374|   -6.093796|   -6.133643|   -6.288221|   -3.267191|
|         375|   -6.033780|   -6.064645|   -6.288890|   -3.267223|
|         376|   -6.004092|   -6.048804|   -6.337819|   -3.267255|
|         377|   -6.008885|   -6.083336|   -6.439352|   -3.267283|
|         378|   -6.048165|   -6.173118|   -6.586153|   -3.267303|
|         379|   -6.117035|   -6.325799|   -6.659508|   -3.267314|
|         380|   -6.191239|   -6.475015|   -6.540251|   -3.267313|
|         381|   -6.211589|   -6.382120|   -6.405933|   -3.267300|
|         382|   -6.155343|   -6.215028|   -6.323485|   -3.267279|
|         383|   -6.079896|   -6.107203|   -6.291530|   -3.267250|
|         384|   -6.026583|   -6.056708|   -6.306516|   -3.267219|
|         385|   -6.006418|   -6.056108|   -6.370096|   -3.267188|
|         386|   -6.020928|   -6.105097|   -6.487329|   -3.267163|
|         387|   -6.068970|   -6.210605|   -6.638026|   -3.267145|
|         388|   -6.142722|   -6.377298|   -6.661128|   -3.267138|
|         389|   -6.210473|   -6.493972|   -6.521208|   -3.267142|
|         390|   -6.213868|   -6.361432|   -6.399527|   -3.267157|
|         391|   -6.152526|   -6.207223|   -6.332086|   -3.267180|
|         392|   -6.084804|   -6.115799|   -6.314637|   -3.267208|
|         393|   -6.042763|   -6.080496|   -6.344868|   -3.267239|
|         394|   -6.034390|   -6.095696|   -6.425772|   -3.267267|
|         395|   -6.060800|   -6.163402|   -6.559429|   -3.267289|
|         396|   -6.119806|   -6.292102|   -6.687488|   -3.267303|
|         397|   -6.197371|   -6.465840|   -6.628745|   -3.267306|
|         398|   -6.246118|   -6.476167|   -6.483269|   -3.267298|
|         399|   -6.214841|   -6.304907|   -6.380334|   -3.267281|
|         400|   -6.139414|   -6.172800|   -6.329852|   -3.267256|
|         401|   -6.075239|   -6.101694|   -6.327136|   -3.267228|
|         402|   -6.041985|   -6.082574|   -6.371770|   -3.267198|
|         403|   -6.043241|   -6.112314|   -6.468295|   -3.267173|
|         404|   -6.078771|   -6.195186|   -6.614532|   -3.267153|
|         405|   -6.144449|   -6.340189|   -6.713184|   -3.267143|
|         406|   -6.220370|   -6.507978|   -6.610039|   -3.267143|
|         407|   -6.253478|   -6.459429|   -6.470947|   -3.267153|
|         408|   -6.210507|   -6.290037|   -6.383062|   -3.267171|
|         409|   -6.139512|   -6.174790|   -6.347163|   -3.267196|
|         410|   -6.086152|   -6.119248|   -6.359172|   -3.267225|
|         411|   -6.064780|   -6.115437|   -6.420147|   -3.267252|
|         412|   -6.078085|   -6.162433|   -6.534553|   -3.267275|
|         413|   -6.125441|   -6.266805|   -6.682225|   -3.267291|
|         414|   -6.199382|   -6.432240|   -6.706321|   -3.267298|
|         415|   -6.267410|   -6.541505|   -6.567703|   -3.267294|
|         416|   -6.267848|   -6.402830|   -6.444702|   -3.267282|
|         417|   -6.200973|   -6.247273|   -6.374907|   -3.267261|
|         418|   -6.128445|   -6.154053|   -6.354400|   -3.267235|
|         419|   -6.082494|   -6.115917|   -6.380759|   -3.267208|
|         420|   -6.070461|   -6.126978|   -6.456898|   -3.267182|
|         421|   -6.093023|   -6.188697|   -6.586905|   -3.267161|
|         422|   -6.148136|   -6.309365|   -6.728577|   -3.267148|
|         423|   -6.224248|   -6.484487|   -6.697012|   -3.267145|
|         424|   -6.281023|   -6.542984|   -6.550580|   -3.267150|
|         425|   -6.264846|   -6.382309|   -6.441720|   -3.267165|
|         426|   -6.197275|   -6.242622|   -6.386723|   -3.267186|
|         427|   -6.134435|   -6.165614|   -6.380680|   -3.267212|
|         428|   -6.100383|   -6.142674|   -6.422552|   -3.267238|
|         429|   -6.100509|   -6.169974|   -6.516277|   -3.267262|
|         430|   -6.135282|   -6.251361|   -6.659184|   -3.267279|
|         431|   -6.201069|   -6.395392|   -6.756771|   -3.267289|
|         432|   -6.277935|   -6.559271|   -6.656217|   -3.267289|
|         433|   -6.310016|   -6.502288|   -6.516663|   -3.267281|
|         434|   -6.261883|   -6.330751|   -6.426761|   -3.267264|
|         435|   -6.185373|   -6.213926|   -6.388090|   -3.267241|
|         436|   -6.127616|   -6.155911|   -6.396583|   -3.267216|
|         437|   -6.102384|   -6.148476|   -6.453144|   -3.267191|
|         438|   -6.111775|   -6.190249|   -6.562883|   -3.267170|
|         439|   -6.154952|   -6.287196|   -6.714323|   -3.267155|
|         440|   -6.225639|   -6.446526|   -6.768289|   -3.267148|
|         441|   -6.296952|   -6.588044|   -6.637484|   -3.267150|
|         442|   -6.311686|   -6.481552|   -6.508587|   -3.267160|
|         443|   -6.256548|   -6.320258|   -6.433598|   -3.267178|
|         444|   -6.187443|   -6.220192|   -6.409325|   -3.267201|
|         445|   -6.141333|   -6.177521|   -6.432724|   -3.267225|
|         446|   -6.128306|   -6.185678|   -6.506095|   -3.267249|
|         447|   -6.150042|   -6.245606|   -6.632852|   -3.267267|
|         448|   -6.205057|   -6.365269|   -6.771359|   -3.267279|
|         449|   -6.282100|   -6.538491|   -6.741635|   -3.267283|
|         450|   -6.339107|   -6.587837|   -6.596029|   -3.267278|
|         451|   -6.318665|   -6.422800|   -6.485682|   -3.267265|
|         452|   -6.244930|   -6.281744|   -6.428235|   -3.267246|
|         453|   -6.177104|   -6.202664|   -6.418995|   -3.267223|
|         454|   -6.138944|   -6.176561|   -6.456793|   -3.267199|
|         455|   -6.135106|   -6.199256|   -6.545664|   -3.267178|
|         456|   -6.165630|   -6.273957|   -6.686854|   -3.267161|
|         457|   -6.227314|   -6.409733|   -6.806874|   -3.267152|
|         458|   -6.303946|   -6.584700|   -6.727659|   -3.267150|
|         459|   -6.347278|   -6.577951|   -6.583919|   -3.267157|
|         460|   -6.314435|   -6.408130|   -6.488054|   -3.267172|
|         461|   -6.244400|   -6.283548|   -6.445033|   -3.267191|
|         462|   -6.187476|   -6.220056|   -6.450284|   -3.267214|
|         463|   -6.161451|   -6.209145|   -6.504075|   -3.267236|
|         464|   -6.169954|   -6.248810|   -6.610829|   -3.267256|
|         465|   -6.212800|   -6.344678|   -6.758340|   -3.267269|
|         466|   -6.284094|   -6.503120|   -6.810795|   -3.267276|
|         467|   -6.356044|   -6.636841|   -6.681642|   -3.267274|
|         468|   -6.367464|   -6.520952|   -6.552082|   -3.267265|
|         469|   -6.305562|   -6.358187|   -6.475087|   -3.267249|
|         470|   -6.230737|   -6.256619|   -6.447963|   -3.267229|
|         471|   -6.180224|   -6.211313|   -6.467630|   -3.267206|
|         472|   -6.163196|   -6.215439|   -6.536282|   -3.267185|
|         473|   -6.180722|   -6.269387|   -6.658871|   -3.267168|
|         474|   -6.231306|   -6.380649|   -6.808247|   -3.267156|
|         475|   -6.305891|   -6.551433|   -6.811078|   -3.267152|
|         476|   -6.369970|   -6.649607|   -6.667248|   -3.267156|
|         477|   -6.366774|   -6.505035|   -6.550339|   -3.267166|
|         478|   -6.303711|   -6.356174|   -6.487777|   -3.267183|
|         479|   -6.238340|   -6.270376|   -6.474871|   -3.267203|
|         480|   -6.199731|   -6.240009|   -6.509796|   -3.267225|
|         481|   -6.194959|   -6.260164|   -6.595926|   -3.267244|
|         482|   -6.224938|   -6.333630|   -6.733499|   -3.267259|
|         483|   -6.286881|   -6.469040|   -6.848879|   -3.267268|
|         484|   -6.364136|   -6.639522|   -6.769747|   -3.267269|
|         485|   -6.405016|   -6.617100|   -6.626299|   -3.267263|
|         486|   -6.364906|   -6.443862|   -6.529051|   -3.267250|
|         487|   -6.288113|   -6.318487|   -6.483607|   -3.267233|
|         488|   -6.226356|   -6.253046|   -6.485502|   -3.267212|
|         489|   -6.196275|   -6.238729|   -6.534871|   -3.267192|
|         490|   -6.200654|   -6.273124|   -6.636600|   -3.267174|
|         491|   -6.239004|   -6.361147|   -6.785998|   -3.267161|
|         492|   -6.306556|   -6.511549|   -6.870924|   -3.267154|
|         493|   -6.381387|   -6.673630|   -6.756363|   -3.267155|
|         494|   -6.409161|   -6.605394|   -6.620662|   -3.267163|
|         495|   -6.362826|   -6.438397|   -6.537638|   -3.267176|
|         496|   -6.293131|   -6.328690|   -6.506255|   -3.267194|
|         497|   -6.242836|   -6.278054|   -6.522794|   -3.267214|
|         498|   -6.224896|   -6.279015|   -6.588802|   -3.267233|
|         499|   -6.241695|   -6.331403|   -6.708335|   -3.267249|
|         500|   -6.292256|   -6.442425|   -6.852427|   -3.267259|
|         501|   -6.367388|   -6.611795|   -6.851312|   -3.267263|
|         502|   -6.429970|   -6.692981|   -6.708092|   -3.267260|
|         503|   -6.419532|   -6.538350|   -6.590580|   -3.267250|
|         504|   -6.348300|   -6.389107|   -6.526121|   -3.267236|
|         505|   -6.277344|   -6.302201|   -6.510294|   -3.267217|
|         506|   -6.234518|   -6.269150|   -6.541198|   -3.267198|
|         507|   -6.225701|   -6.284786|   -6.622235|   -3.267180|
|         508|   -6.251246|   -6.351241|   -6.756903|   -3.267166|
|         509|   -6.308772|   -6.477210|   -6.893577|   -3.267157|
|         510|   -6.385470|   -6.654139|   -6.845181|   -3.267155|
|         511|   -6.438831|   -6.694312|   -6.699011|   -3.267160|
|         512|   -6.418268|   -6.529929|   -6.594858|   -3.267171|
|         513|   -6.350679|   -6.395411|   -6.544391|   -3.267186|
|         514|   -6.290433|   -6.323311|   -6.542745|   -3.267204|
|         515|   -6.259634|   -6.304987|   -6.589380|   -3.267222|
|         516|   -6.263163|   -6.337304|   -6.688431|   -3.267238|
|         517|   -6.301263|   -6.424863|   -6.833438|   -3.267250|
|         518|   -6.369292|   -6.575427|   -6.911154|   -3.267256|
|         519|   -6.443653|   -6.726450|   -6.795550|   -3.267256|
|         520|   -6.465315|   -6.637826|   -6.660036|   -3.267249|
|         521|   -6.409397|   -6.469202|   -6.575738|   -3.267237|
|         522|   -6.332863|   -6.359268|   -6.541917|   -3.267221|
|         523|   -6.277949|   -6.306755|   -6.554899|   -3.267203|
|         524|   -6.255963|   -6.303989|   -6.616123|   -3.267185|
|         525|   -6.268431|   -6.350307|   -6.730838|   -3.267171|
|         526|   -6.314283|   -6.452254|   -6.883266|   -3.267161|
|         527|   -6.386479|   -6.616074|   -6.921046|   -3.267156|
|         528|   -6.456086|   -6.747396|   -6.784570|   -3.267158|
|         529|   -6.466072|   -6.628421|   -6.659828|   -3.267166|
|         530|   -6.409281|   -6.471151|   -6.589445|   -3.267179|
|         531|   -6.342139|   -6.376108|   -6.569512|   -3.267195|
|         532|   -6.299125|   -6.338007|   -6.597424|   -3.267212|
|         533|   -6.289440|   -6.350874|   -6.675901|   -3.267228|
|         534|   -6.314554|   -6.416392|   -6.807141|   -3.267241|
|         535|   -6.372456|   -6.542883|   -6.936326|   -3.267249|
|         536|   -6.449513|   -6.715792|   -6.883021|   -3.267251|
|         537|   -6.498906|   -6.730422|   -6.737414|   -3.267247|
|         538|   -6.468239|   -6.558894|   -6.632697|   -3.267237|
|         539|   -6.392047|   -6.424751|   -6.580322|   -3.267223|
|         540|   -6.326393|   -6.351627|   -6.575608|   -3.267207|
|         541|   -6.291385|   -6.330384|   -6.617926|   -3.267190|
|         542|   -6.290657|   -6.357574|   -6.711719|   -3.267175|
|         543|   -6.323986|   -6.437049|   -6.856748|   -3.267164|
|         544|   -6.387685|   -6.577998|   -6.966929|   -3.267158|
|         545|   -6.463923|   -6.751236|   -6.874256|   -3.267158|
|         546|   -6.502834|   -6.725759|   -6.732944|   -3.267163|
|         547|   -6.466453|   -6.556454|   -6.641768|   -3.267173|
|         548|   -6.397379|   -6.437062|   -6.603134|   -3.267188|
|         549|   -6.343366|   -6.378268|   -6.612732|   -3.267203|
|         550|   -6.320668|   -6.371901|   -6.671313|   -3.267219|
|         551|   -6.332581|   -6.416663|   -6.783176|   -3.267232|
|         552|   -6.378660|   -6.518861|   -6.929649|   -3.267241|
|         553|   -6.451665|   -6.682446|   -6.958666|   -3.267245|
|         554|   -6.519615|   -6.793723|   -6.821772|   -3.267244|
|         555|   -6.520590|   -6.656473|   -6.697234|   -3.267237|
|         556|   -6.453286|   -6.499131|   -6.625538|   -3.267225|
|         557|   -6.379439|   -6.403922|   -6.603041|   -3.267210|
|         558|   -6.331814|   -6.363718|   -6.627146|   -3.267195|
|         559|   -6.317867|   -6.372360|   -6.700558|   -3.267180|
|         560|   -6.338260|   -6.430911|   -6.828005|   -3.267168|
|         561|   -6.391165|   -6.547352|   -6.975024|   -3.267160|
|         562|   -6.466370|   -6.721293|   -6.959902|   -3.267158|
|         563|   -6.527095|   -6.802968|   -6.814195|   -3.267161|
|         564|   -6.518787|   -6.650892|   -6.701831|   -3.267169|
|         565|   -6.455101|   -6.506990|   -6.643782|   -3.267181|
|         566|   -6.392268|   -6.426171|   -6.635165|   -3.267195|
|         567|   -6.356975|   -6.400348|   -6.674618|   -3.267210|
|         568|   -6.355646|   -6.425272|   -6.765809|   -3.267223|
|         569|   -6.389027|   -6.504474|   -6.906469|   -3.267234|
|         570|   -6.453641|   -6.646399|   -7.006564|   -3.267239|
|         571|   -6.529921|   -6.809989|   -6.909969|   -3.267240|
|         572|   -6.562279|   -6.755492|   -6.769487|   -3.267235|
|         573|   -6.514036|   -6.582716|   -6.677707|   -3.267226|
|         574|   -6.436402|   -6.463938|   -6.637050|   -3.267213|
|         575|   -6.377049|   -6.403901|   -6.643356|   -3.267198|
|         576|   -6.349965|   -6.394172|   -6.697296|   -3.267184|
|         577|   -6.357240|   -6.433029|   -6.804041|   -3.267172|
|         578|   -6.398108|   -6.525990|   -6.955885|   -3.267163|
|         579|   -6.467051|   -6.681338|   -7.026055|   -3.267159|
|         580|   -6.540078|   -6.836077|   -6.902187|   -3.267160|
|         581|   -6.562358|   -6.750593|   -6.770106|   -3.267165|
|         582|   -6.513383|   -6.586693|   -6.691722|   -3.267175|
|         583|   -6.445467|   -6.482258|   -6.664653|   -3.267188|
|         584|   -6.398392|   -6.436291|   -6.685553|   -3.267202|
|         585|   -6.383908|   -6.441854|   -6.756402|   -3.267215|
|         586|   -6.404180|   -6.499511|   -6.880556|   -3.267226|
|         587|   -6.457887|   -6.616990|   -7.018942|   -3.267233|
|         588|   -6.534040|   -6.788681|   -6.994428|   -3.267235|
|         589|   -6.591037|   -6.840269|   -6.849209|   -3.267232|
|         590|   -6.570790|   -6.675112|   -6.737092|   -3.267225|
|         591|   -6.496206|   -6.532151|   -6.677655|   -3.267214|
|         592|   -6.426863|   -6.451061|   -6.666281|   -3.267201|
|         593|   -6.386895|   -6.422761|   -6.701592|   -3.267188|
|         594|   -6.380994|   -6.442770|   -6.787456|   -3.267175|
|         595|   -6.409191|   -6.513854|   -6.926550|   -3.267166|
|         596|   -6.468652|   -6.645005|   -7.056617|   -3.267160|
|         597|   -6.545083|   -6.822534|   -6.992036|   -3.267159|
|         598|   -6.594037|   -6.843110|   -6.846820|   -3.267163|
|         599|   -6.569136|   -6.676415|   -6.747278|   -3.267171|
|         600|   -6.502077|   -6.547155|   -6.701193|   -3.267182|
|         601|   -6.444763|   -6.479892|   -6.703815|   -3.267194|
|         602|   -6.417379|   -6.466107|   -6.755070|   -3.267207|
|         603|   -6.424386|   -6.503363|   -6.859139|   -3.267218|
|         604|   -6.465839|   -6.596982|   -7.004824|   -3.267226|
|         605|   -6.536048|   -6.753378|   -7.061529|   -3.267230|
|         606|   -6.607692|   -6.887930|   -6.935002|   -3.267229|
|         607|   -6.619513|   -6.773626|   -6.804023|   -3.267224|
|         608|   -6.557161|   -6.609160|   -6.725039|   -3.267215|
|         609|   -6.480938|   -6.505555|   -6.695813|   -3.267204|
|         610|   -6.428649|   -6.458107|   -6.713110|   -3.267191|
|         611|   -6.409601|   -6.459729|   -6.778893|   -3.267179|
|         612|   -6.424829|   -6.510413|   -6.898479|   -3.267168|
|         613|   -6.472971|   -6.617233|   -7.051089|   -3.267162|
|         614|   -6.546074|   -6.785070|   -7.072246|   -3.267159|
|         615|   -6.613160|   -6.904315|   -6.931402|   -3.267161|
|         616|   -6.618275|   -6.774423|   -6.810803|   -3.267167|
|         617|   -6.560440|   -6.621493|   -6.744863|   -3.267176|
|         618|   -6.495673|   -6.531409|   -6.729155|   -3.267188|
|         619|   -6.455948|   -6.497827|   -6.761498|   -3.267200|
|         620|   -6.449695|   -6.515396|   -6.844954|   -3.267211|
|         621|   -6.478224|   -6.586541|   -6.979940|   -3.267219|
|         622|   -6.538938|   -6.719718|   -7.096884|   -3.267224|
|         623|   -6.615569|   -6.889374|   -7.022667|   -3.267225|
|         624|   -6.656788|   -6.869633|   -6.878692|   -3.267222|
|         625|   -6.616686|   -6.695379|   -6.779513|   -3.267215|
|         626|   -6.538708|   -6.567953|   -6.731983|   -3.267205|
|         627|   -6.475221|   -6.500389|   -6.731597|   -3.267193|
|         628|   -6.443158|   -6.483698|   -6.778258|   -3.267182|
|         629|   -6.445290|   -6.515118|   -6.876794|   -3.267171|
|         630|   -6.481140|   -6.599089|   -7.025274|   -3.267164|
|         631|   -6.546501|   -6.744804|   -7.125101|   -3.267160|
|         632|   -6.622006|   -6.915417|   -7.021182|   -3.267160|
|         633|   -6.656804|   -6.873523|   -6.882585|   -3.267164|
|         634|   -6.617903|   -6.705690|   -6.795854|   -3.267171|
|         635|   -6.550350|   -6.591231|   -6.761434|   -3.267181|
|         636|   -6.499394|   -6.536956|   -6.775309|   -3.267193|
|         637|   -6.480047|   -6.535103|   -6.838671|   -3.267203|
|         638|   -6.495361|   -6.585084|   -6.955404|   -3.267212|
|         639|   -6.544579|   -6.693825|   -7.098498|   -3.267219|
|         640|   -6.618786|   -6.861384|   -7.102666|   -3.267221|
|         641|   -6.681347|   -6.944424|   -6.960666|   -3.267219|
|         642|   -6.671190|   -6.790145|   -6.841452|   -3.267214|
|         643|   -6.599091|   -6.638955|   -6.774930|   -3.267206|
|         644|   -6.526499|   -6.549943|   -6.756886|   -3.267195|
|         645|   -6.481740|   -6.514614|   -6.785225|   -3.267184|
|         646|   -6.470741|   -6.527500|   -6.863139|   -3.267174|
|         647|   -6.493814|   -6.590287|   -6.995075|   -3.267165|
|         648|   -6.548826|   -6.711371|   -7.139274|   -3.267160|
|         649|   -6.624570|   -6.887827|   -7.108839|   -3.267159|
|         650|   -6.682606|   -6.955678|   -6.962571|   -3.267161|
|         651|   -6.670834|   -6.799240|   -6.854472|   -3.267167|
|         652|   -6.607519|   -6.659902|   -6.800662|   -3.267176|
|         653|   -6.547391|   -6.583630|   -6.796212|   -3.267186|
|         654|   -6.515349|   -6.562183|   -6.840207|   -3.267196|
|         655|   -6.517380|   -6.591963|   -6.936474|   -3.267206|
|         656|   -6.554050|   -6.677230|   -7.079112|   -3.267213|
|         657|   -6.620916|   -6.825657|   -7.159901|   -3.267216|
|         658|   -6.694771|   -6.976533|   -7.047803|   -3.267216|
|         659|   -6.716601|   -6.889400|   -6.911163|   -3.267212|
|         660|   -6.660136|   -6.719200|   -6.824872|   -3.267205|
|         661|   -6.582118|   -6.607218|   -6.788891|   -3.267196|
|         662|   -6.525345|   -6.552518|   -6.799429|   -3.267186|
|         663|   -6.501255|   -6.547186|   -6.857681|   -3.267176|
|         664|   -6.511326|   -6.590169|   -6.969064|   -3.267167|
|         665|   -6.554562|   -6.687521|   -7.122834|   -3.267161|
|         666|   -6.624832|   -6.847064|   -7.179811|   -3.267159|
|         667|   -6.696596|   -6.995624|   -7.049596|   -3.267160|
|         668|   -6.715196|   -6.898669|   -6.921110|   -3.267164|
|         669|   -6.665192|   -6.738037|   -6.847014|   -3.267171|
|         670|   -6.599442|   -6.638213|   -6.824063|   -3.267180|
|         671|   -6.555506|   -6.596566|   -6.849289|   -3.267190|
|         672|   -6.544346|   -6.606693|   -6.925050|   -3.267199|
|         673|   -6.567965|   -6.669878|   -7.053483|   -3.267206|
|         674|   -6.624539|   -6.794196|   -7.182709|   -3.267211|
|         675|   -6.700677|   -6.965575|   -7.134188|   -3.267212|
|         676|   -6.749822|   -6.981235|   -6.988611|   -3.267210|
|         677|   -6.718752|   -6.808800|   -6.882077|   -3.267205|
|         678|   -6.641261|   -6.672748|   -6.827605|   -3.267197|
|         679|   -6.573843|   -6.597543|   -6.820554|   -3.267188|
|         680|   -6.536823|   -6.573904|   -6.860071|   -3.267178|
|         681|   -6.533797|   -6.598050|   -6.950458|   -3.267169|
|         682|   -6.564528|   -6.673339|   -7.093508|   -3.267163|
|         683|   -6.625791|   -6.809004|   -7.216933|   -3.267159|
|         684|   -6.702106|   -6.986833|   -7.139598|   -3.267158|
|         685|   -6.747862|   -6.992945|   -6.996069|   -3.267161|
|         686|   -6.720474|   -6.825940|   -6.900818|   -3.267167|
|         687|   -6.654724|   -6.701294|   -6.858869|   -3.267175|
|         688|   -6.600384|   -6.638402|   -6.865665|   -3.267184|
|         689|   -6.576306|   -6.628994|   -6.921569|   -3.267193|
|         690|   -6.586684|   -6.671309|   -7.030591|   -3.267200|
|         691|   -6.631329|   -6.771342|   -7.175114|   -3.267206|
|         692|   -6.703148|   -6.932962|   -7.207872|   -3.267208|
|         693|   -6.770392|   -7.043729|   -7.072795|   -3.267207|
|         694|   -6.770866|   -6.906110|   -6.946814|   -3.267203|
|         695|   -6.702417|   -6.747086|   -6.873110|   -3.267197|
|         696|   -6.626911|   -6.649930|   -6.848377|   -3.267189|
|         697|   -6.577369|   -6.607494|   -6.869850|   -3.267180|
|         698|   -6.561233|   -6.613355|   -6.939997|   -3.267171|
|         699|   -6.579106|   -6.668139|   -7.064146|   -3.267164|
|         700|   -6.629353|   -6.779386|   -7.216342|   -3.267159|
|         701|   -6.703193|   -6.950623|   -7.222531|   -3.267158|
|         702|   -6.768069|   -7.059427|   -7.079082|   -3.267159|
|         703|   -6.769636|   -6.922399|   -6.962509|   -3.267164|
|         704|   -6.711827|   -6.773620|   -6.900778|   -3.267170|
|         705|   -6.649717|   -6.688049|   -6.889167|   -3.267179|
|         706|   -6.613279|   -6.658774|   -6.925919|   -3.267187|
|         707|   -6.610416|   -6.681052|   -7.014336|   -3.267195|
|         708|   -6.642294|   -6.758040|   -7.152266|   -3.267200|
|         709|   -6.705570|   -6.897944|   -7.253467|   -3.267204|
|         710|   -6.780823|   -7.059927|   -7.160424|   -3.267204|
|         711|   -6.812452|   -7.004808|   -7.019232|   -3.267202|
|         712|   -6.763143|   -6.830621|   -6.925586|   -3.267196|
|         713|   -6.683943|   -6.710046|   -6.882790|   -3.267189|
|         714|   -6.622760|   -6.647940|   -6.886623|   -3.267181|
|         715|   -6.593593|   -6.635671|   -6.937511|   -3.267173|
|         716|   -6.598454|   -6.671152|   -7.040638|   -3.267165|
|         717|   -6.636614|   -6.759370|   -7.192162|   -3.267160|
|         718|   -6.703327|   -6.909435|   -7.281276|   -3.267157|
|         719|   -6.777811|   -7.076955|   -7.168143|   -3.267158|
|         720|   -6.808887|   -7.021517|   -7.032518|   -3.267161|
|         721|   -6.768447|   -6.855849|   -6.950057|   -3.267166|
|         722|   -6.702939|   -6.746039|   -6.919729|   -3.267174|
|         723|   -6.655203|   -6.696100|   -6.937835|   -3.267181|
|         724|   -6.639259|   -6.698729|   -7.005959|   -3.267189|
|         725|   -6.657992|   -6.754047|   -7.127217|   -3.267195|
|         726|   -6.710276|   -6.869490|   -7.264316|   -3.267199|
|         727|   -6.785218|   -7.039258|   -7.243661|   -3.267201|
|         728|   -6.841274|   -7.089420|   -7.099024|   -3.267199|
|         729|   -6.819977|   -6.922999|   -6.985294|   -3.267195|
|         730|   -6.743899|   -6.778400|   -6.923821|   -3.267189|
|         731|   -6.672793|   -6.695393|   -6.910116|   -3.267182|
|         732|   -6.630835|   -6.664769|   -6.942599|   -3.267174|
|         733|   -6.622633|   -6.681751|   -7.024938|   -3.267167|
|         734|   -6.648170|   -6.748614|   -7.161196|   -3.267161|
|         735|   -6.704964|   -6.874110|   -7.301765|   -3.267157|
|         736|   -6.780776|   -7.052503|   -7.257046|   -3.267157|
|         737|   -6.835862|   -7.107073|   -7.110985|   -3.267159|
|         738|   -6.821223|   -6.947855|   -7.007065|   -3.267163|
|         739|   -6.758959|   -6.813030|   -6.957385|   -3.267169|
|         740|   -6.701858|   -6.741180|   -6.957055|   -3.267176|
|         741|   -6.673213|   -6.724087|   -7.005583|   -3.267184|
|         742|   -6.678686|   -6.758811|   -7.106793|   -3.267190|
|         743|   -6.718664|   -6.850329|   -7.249930|   -3.267195|
|         744|   -6.787561|   -7.004784|   -7.308828|   -3.267197|
|         745|   -6.858110|   -7.137334|   -7.184621|   -3.267197|
|         746|   -6.868854|   -7.021523|   -7.052517|   -3.267194|
|         747|   -6.805063|   -6.855558|   -6.971624|   -3.267189|
|         748|   -6.727124|   -6.750184|   -6.940195|   -3.267182|
|         749|   -6.672922|   -6.700602|   -6.954870|   -3.267175|
|         750|   -6.651683|   -6.699497|   -7.017362|   -3.267168|
|         751|   -6.664348|   -6.746450|   -7.133299|   -3.267162|
|         752|   -6.709666|   -6.848006|   -7.288548|   -3.267158|
|         753|   -6.780836|   -7.011385|   -7.332266|   -3.267156|
|         754|   -6.850911|   -7.153277|   -7.197052|   -3.267157|
|         755|   -6.866127|   -7.046797|   -7.072203|   -3.267160|
|         756|   -6.815884|   -6.889696|   -7.002280|   -3.267165|
|         757|   -6.752764|   -6.794367|   -6.983392|   -3.267172|
|         758|   -6.712179|   -6.757010|   -7.012951|   -3.267179|
|         759|   -6.704459|   -6.771786|   -7.093613|   -3.267185|
|         760|   -6.731488|   -6.840712|   -7.225653|   -3.267190|
|         761|   -6.790823|   -6.971954|   -7.342251|   -3.267193|
|         762|   -6.866244|   -7.139508|   -7.271542|   -3.267194|
|         763|   -6.906316|   -7.117581|   -7.127349|   -3.267192|
|         764|   -6.864794|   -6.941861|   -7.026463|   -3.267188|
|         765|   -6.785130|   -6.812816|   -6.976853|   -3.267182|
|         766|   -6.719791|   -6.743295|   -6.974025|   -3.267175|
|         767|   -6.685639|   -6.724136|   -7.017655|   -3.267169|
|         768|   -6.685328|   -6.752245|   -7.112466|   -3.267163|
|         769|   -6.718358|   -6.831523|   -7.259247|   -3.267158|
|         770|   -6.781092|   -6.971374|   -7.375602|   -3.267156|
|         771|   -6.856946|   -7.149044|   -7.287240|   -3.267155|
|         772|   -6.899725|   -7.142680|   -7.145774|   -3.267158|
|         773|   -6.870820|   -6.976363|   -7.054672|   -3.267162|
|         774|   -6.807040|   -6.856164|   -7.016772|   -3.267167|
|         775|   -6.755938|   -6.797538|   -7.027742|   -3.267174|
|         776|   -6.735286|   -6.792556|   -7.088349|   -3.267180|
|         777|   -6.749104|   -6.840149|   -7.202123|   -3.267185|
|         778|   -6.796897|   -6.946923|   -7.343012|   -3.267189|
|         779|   -6.869802|   -7.112514|   -7.350023|   -3.267190|
|         780|   -6.931105|   -7.192708|   -7.209217|   -3.267189|
|         781|   -6.919471|   -7.036567|   -7.088657|   -3.267186|
|         782|   -6.845673|   -6.883912|   -7.020198|   -3.267182|
|         783|   -6.771275|   -6.793126|   -6.999873|   -3.267176|
|         784|   -6.724523|   -6.755563|   -7.025422|   -3.267169|
|         785|   -6.711211|   -6.765496|   -7.099804|   -3.267163|
|         786|   -6.731557|   -6.824142|   -7.228323|   -3.267158|
|         787|   -6.783655|   -6.939453|   -7.379723|   -3.267155|
|         788|   -6.857967|   -7.113625|   -7.372457|   -3.267154|
|         789|   -6.920822|   -7.213516|   -7.227588|   -3.267156|
|         790|   -6.919991|   -7.071949|   -7.114924|   -3.267159|
|         791|   -6.863199|   -6.927195|   -7.057255|   -3.267164|
|         792|   -6.804114|   -6.845897|   -7.049709|   -3.267169|
|         793|   -6.771083|   -6.820889|   -7.090934|   -3.267175|
|         794|   -6.771664|   -6.848049|   -7.184339|   -3.267181|
|         795|   -6.806880|   -6.931268|   -7.324017|   -3.267185|
|         796|   -6.872378|   -7.077865|   -7.405319|   -3.267187|
|         797|   -6.944860|   -7.225853|   -7.295798|   -3.267187|
|         798|   -6.965069|   -7.135663|   -7.158459|   -3.267185|
|         799|   -6.906796|   -6.964055|   -7.070428|   -3.267181|
|         800|   -6.826984|   -6.850510|   -7.032323|   -3.267176|
|         801|   -6.768310|   -6.793804|   -7.040288|   -3.267170|
|         802|   -6.742041|   -6.785833|   -7.095275|   -3.267164|
|         803|   -6.749523|   -6.825161|   -7.202797|   -3.267159|
|         804|   -6.789795|   -6.917271|   -7.357044|   -3.267155|
|         805|   -6.857620|   -7.071165|   -7.436085|   -3.267154|
|         806|   -6.931129|   -7.236045|   -7.315967|   -3.267154|
|         807|   -6.959544|   -7.171094|   -7.183433|   -3.267156|
|         808|   -6.918932|   -7.008041|   -7.105049|   -3.267160|
|         809|   -6.856063|   -6.902511|   -7.078729|   -3.267165|
|         810|   -6.811706|   -6.856748|   -7.101103|   -3.267171|
|         811|   -6.799216|   -6.863944|   -7.174087|   -3.267176|
|         812|   -6.821375|   -6.924938|   -7.299462|   -3.267180|
|         813|   -6.876538|   -7.047486|   -7.426881|   -3.267183|
|         814|   -6.951232|   -7.216490|   -7.381023|   -3.267184|
|         815|   -6.998600|   -7.227651|   -7.235772|   -3.267183|
|         816|   -6.965484|   -7.053351|   -7.127805|   -3.267180|
|         817|   -6.886124|   -6.915967|   -7.071380|   -3.267175|
|         818|   -6.816879|   -6.839005|   -7.061957|   -3.267170|
|         819|   -6.777816|   -6.813017|   -7.098482|   -3.267164|
|         820|   -6.772360|   -6.833935|   -7.185082|   -3.267159|
|         821|   -6.800206|   -6.904585|   -7.325394|   -3.267155|
|         822|   -6.858543|   -7.034014|   -7.462183|   -3.267153|
|         823|   -6.934276|   -7.214036|   -7.405523|   -3.267153|
|         824|   -6.987030|   -7.258701|   -7.260411|   -3.267154|
|         825|   -6.970999|   -7.098648|   -7.160497|   -3.267157|
|         826|   -6.910704|   -6.967995|   -7.114820|   -3.267162|
|         827|   -6.856917|   -6.900305|   -7.118603|   -3.267167|
|         828|   -6.831753|   -6.887553|   -7.171755|   -3.267172|
|         829|   -6.840702|   -6.927460|   -7.277840|   -3.267176|
|         830|   -6.883913|   -7.025684|   -7.419393|   -3.267179|
|         831|   -6.954265|   -7.185445|   -7.453069|   -3.267181|
|         832|   -7.019669|   -7.291394|   -7.319516|   -3.267180|
|         833|   -7.017800|   -7.150273|   -7.192592|   -3.267178|
|         834|   -6.947258|   -6.990068|   -7.117145|   -3.267174|
|         835|   -6.869946|   -6.891429|   -7.090233|   -3.267170|
|         836|   -6.818488|   -6.846932|   -7.108975|   -3.267164|
|         837|   -6.800089|   -6.849948|   -7.175592|   -3.267159|
|         838|   -6.815223|   -6.900662|   -7.295894|   -3.267155|
|         839|   -6.862389|   -7.006059|   -7.452278|   -3.267153|
|         840|   -6.934172|   -7.172780|   -7.483881|   -3.267152|
|         841|   -7.002636|   -7.309233|   -7.345267|   -3.267152|
|         842|   -7.015571|   -7.196601|   -7.224034|   -3.267155|
|         843|   -6.966267|   -7.043059|   -7.158139|   -3.267158|
|         844|   -6.906280|   -6.951933|   -7.143271|   -3.267163|
|         845|   -6.869217|   -6.918780|   -7.177221|   -3.267168|
|         846|   -6.865017|   -6.938347|   -7.262828|   -3.267172|
|         847|   -6.895462|   -7.013391|   -7.397558|   -3.267176|
|         848|   -6.957279|   -7.151702|   -7.497287|   -3.267178|
|         849|   -7.030737|   -7.309981|   -7.406301|   -3.267178|
|         850|   -7.059833|   -7.248892|   -7.264914|   -3.267176|
|         851|   -7.008045|   -7.073236|   -7.169805|   -3.267173|
|         852|   -6.926954|   -6.951471|   -7.125032|   -3.267169|
|         853|   -6.863956|   -6.887599|   -7.126376|   -3.267164|
|         854|   -6.832692|   -6.872836|   -7.174044|   -3.267160|
|         855|   -6.834991|   -6.904762|   -7.273164|   -3.267155|
|         856|   -6.870101|   -6.987777|   -7.423436|   -3.267152|
|         857|   -6.933965|   -7.131404|   -7.532648|   -3.267151|
|         858|   -7.009058|   -7.308796|   -7.435137|   -3.267151|
|         859|   -7.049312|   -7.292924|   -7.296051|   -3.267152|
|         860|   -7.020062|   -7.128168|   -7.208975|   -3.267156|
|         861|   -6.958999|   -7.012185|   -7.175058|   -3.267160|
|         862|   -6.911450|   -6.957710|   -7.190232|   -3.267164|
|         863|   -6.894372|   -6.957231|   -7.255609|   -3.267168|
|         864|   -6.911705|   -7.010385|   -7.373799|   -3.267172|
|         865|   -6.962549|   -7.124271|   -7.507884|   -3.267174|
|         866|   -7.035803|   -7.291663|   -7.488269|   -3.267175|
|         867|   -7.089349|   -7.334552|   -7.344402|   -3.267174|
|         868|   -7.065132|   -7.165193|   -7.229612|   -3.267172|
|         869|   -6.986910|   -7.019643|   -7.166382|   -3.267169|
|         870|   -6.914037|   -6.935181|   -7.150421|   -3.267164|
|         871|   -6.870135|   -6.902397|   -7.179989|   -3.267160|
|         872|   -6.859558|   -6.916281|   -7.258533|   -3.267156|
|         873|   -6.882179|   -6.978605|   -7.391291|   -3.267152|
|         874|   -6.935791|   -7.097680|   -7.541526|   -3.267150|
|         875|   -7.010129|   -7.274382|   -7.521964|   -3.267150|
|         876|   -7.070865|   -7.366700|   -7.376535|   -3.267151|
|         877|   -7.068512|   -7.222526|   -7.267719|   -3.267153|
|         878|   -7.013691|   -7.081749|   -7.214035|   -3.267156|
|         879|   -6.958117|   -7.004601|   -7.210560|   -3.267160|
|         880|   -6.928730|   -6.983895|   -7.256326|   -3.267165|
|         881|   -6.932891|   -7.016156|   -7.354642|   -3.267168|
|         882|   -6.971459|   -7.106000|   -7.494336|   -3.267171|
|         883|   -7.038776|   -7.258838|   -7.552088|   -3.267172|
|         884|   -7.107010|   -7.385230|   -7.429383|   -3.267172|
|         885|   -7.114528|   -7.263451|   -7.296803|   -3.267171|
|         886|   -7.048144|   -7.096497|   -7.214425|   -3.267168|
|         887|   -6.968387|   -6.989994|   -7.180968|   -3.267164|
|         888|   -6.912370|   -6.938581|   -7.193014|   -3.267160|
|         889|   -6.888944|   -6.934788|   -7.252038|   -3.267156|
|         890|   -6.898875|   -6.977807|   -7.363868|   -3.267152|
|         891|   -6.940959|   -7.073562|   -7.520602|   -3.267150|
|         892|   -7.009443|   -7.230898|   -7.589820|   -3.267149|
|         893|   -7.081604|   -7.393305|   -7.464150|   -3.267149|
|         894|   -7.107840|   -7.321340|   -7.334796|   -3.267151|
|         895|   -7.068131|   -7.161259|   -7.260397|   -3.267154|
|         896|   -7.008588|   -7.059878|   -7.238067|   -3.267157|
|         897|   -6.967949|   -7.018286|   -7.264767|   -3.267161|
|         898|   -6.959099|   -7.030216|   -7.342652|   -3.267165|
|         899|   -6.984767|   -7.097254|   -7.471380|   -3.267168|
|         900|   -7.042612|   -7.227135|   -7.584909|   -3.267169|
|         901|   -7.115972|   -7.390844|   -7.515278|   -3.267170|
|         902|   -7.152778|   -7.359986|   -7.371401|   -3.267169|
|         903|   -7.108071|   -7.182358|   -7.269391|   -3.267166|
|         904|   -7.026375|   -7.052500|   -7.217993|   -3.267163|
|         905|   -6.959309|   -6.981487|   -7.212804|   -3.267159|
|         906|   -6.923152|   -6.960019|   -7.253307|   -3.267155|
|         907|   -6.920314|   -6.984726|   -7.344079|   -3.267152|
|         908|   -6.950215|   -7.058935|   -7.488293|   -3.267149|
|         909|   -7.009692|   -7.191930|   -7.621148|   -3.267148|
|         910|   -7.084894|   -7.373299|   -7.554166|   -3.267148|
|         911|   -7.135469|   -7.410348|   -7.410467|   -3.267149|
|         912|   -7.119151|   -7.250735|   -7.314458|   -3.267151|
|         913|   -7.061757|   -7.124124|   -7.272729|   -3.267154|
|         914|   -7.011746|   -7.060521|   -7.280664|   -3.267158|
|         915|   -6.990301|   -7.052216|   -7.338528|   -3.267161|
|         916|   -7.002848|   -7.097629|   -7.449245|   -3.267164|
|         917|   -7.049225|   -7.203016|   -7.586299|   -3.267166|
|         918|   -7.120300|   -7.366487|   -7.592462|   -3.267167|
|         919|   -7.178546|   -7.437363|   -7.452729|   -3.267167|
|         920|   -7.163152|   -7.276554|   -7.331551|   -3.267165|
|         921|   -7.086874|   -7.123272|   -7.261583|   -3.267162|
|         922|   -7.010761|   -7.031360|   -7.239155|   -3.267159|
|         923|   -6.962175|   -6.991855|   -7.261901|   -3.267155|
|         924|   -6.946553|   -6.998856|   -7.332546|   -3.267152|
|         925|   -6.963958|   -7.053119|   -7.457066|   -3.267149|
|         926|   -7.012629|   -7.162001|   -7.614382|   -3.267147|
|         927|   -7.084576|   -7.331606|   -7.635100|   -3.267146|
|         928|   -7.151332|   -7.463969|   -7.494292|   -3.267147|
|         929|   -7.162982|   -7.347946|   -7.376626|   -3.267149|
|         930|   -7.115831|   -7.198002|   -7.314658|   -3.267151|
|         931|   -7.059618|   -7.110908|   -7.303814|   -3.267155|
|         932|   -7.026381|   -7.081984|   -7.342245|   -3.267158|
|         933|   -7.025857|   -7.106595|   -7.432796|   -3.267161|
|         934|   -7.059732|   -7.188249|   -7.568745|   -3.267163|
|         935|   -7.123583|   -7.333523|   -7.646873|   -3.267165|
|         936|   -7.193357|   -7.474712|   -7.538377|   -3.267165|
|         937|   -7.209459|   -7.375445|   -7.401097|   -3.267163|
|         938|   -7.147988|   -7.202853|   -7.311911|   -3.267161|
|         939|   -7.066328|   -7.088577|   -7.271970|   -3.267158|
|         940|   -7.005966|   -7.030310|   -7.277437|   -3.267155|
|         941|   -6.977610|   -7.019838|   -7.329049|   -3.267151|
|         942|   -6.982381|   -7.055392|   -7.432327|   -3.267149|
|         943|   -7.019289|   -7.141816|   -7.585882|   -3.267146|
|         944|   -7.083859|   -7.288709|   -7.688462|   -3.267145|
|         945|   -7.157903|   -7.466065|   -7.583800|   -3.267145|
|         946|   -7.196318|   -7.444386|   -7.447296|   -3.267147|
|         947|   -7.168148|   -7.281953|   -7.364108|   -3.267149|
|         948|   -7.110712|   -7.169941|   -7.334131|   -3.267152|
|         949|   -7.067124|   -7.119537|   -7.353572|   -3.267155|
|         950|   -7.053821|   -7.123722|   -7.423809|   -3.267158|
|         951|   -7.074739|   -7.182873|   -7.545835|   -3.267160|
|         952|   -7.128398|   -7.304314|   -7.668810|   -3.267162|
|         953|   -7.200758|   -7.469634|   -7.622337|   -3.267162|
|         954|   -7.244042|   -7.468582|   -7.477866|   -3.267162|
|         955|   -7.206833|   -7.291382|   -7.369214|   -3.267160|
|         956|   -7.125245|   -7.153631|   -7.311253|   -3.267157|
|         957|   -7.054403|   -7.075521|   -7.299626|   -3.267154|
|         958|   -7.013474|   -7.047448|   -7.333136|   -3.267151|
|         959|   -7.005560|   -7.065133|   -7.415705|   -3.267148|
|         960|   -7.030227|   -7.130859|   -7.552495|   -3.267146|
|         961|   -7.084967|   -7.253221|   -7.701551|   -3.267144|
|         962|   -7.158913|   -7.432063|   -7.671717|   -3.267144|
|         963|   -7.217761|   -7.519702|   -7.526542|   -3.267145|
|         964|   -7.215257|   -7.375249|   -7.421454|   -3.267147|
|         965|   -7.163627|   -7.238274|   -7.371664|   -3.267149|
|         966|   -7.112153|   -7.165096|   -7.372284|   -3.267152|
|         967|   -7.086682|   -7.148757|   -7.422692|   -3.267155|
|         968|   -7.094546|   -7.186456|   -7.525768|   -3.267157|
|         969|   -7.136378|   -7.283485|   -7.662882|   -3.267159|
|         970|   -7.204728|   -7.441496|   -7.693285|   -3.267160|
|         971|   -7.266411|   -7.536188|   -7.560716|   -3.267160|
|         972|   -7.259663|   -7.387569|   -7.433723|   -3.267159|
|         973|   -7.186152|   -7.227075|   -7.357100|   -3.267156|
|         974|   -7.107215|   -7.127748|   -7.328283|   -3.267154|
|         975|   -7.054100|   -7.081592|   -7.344355|   -3.267151|
|         976|   -7.033508|   -7.081867|   -7.407304|   -3.267148|
|         977|   -7.045714|   -7.128356|   -7.523259|   -3.267145|
|         978|   -7.089265|   -7.227363|   -7.682288|   -3.267144|
|         979|   -7.157930|   -7.387578|   -7.742855|   -3.267143|
|         980|   -7.228548|   -7.548589|   -7.613293|   -3.267143|
|         981|   -7.253565|   -7.473381|   -7.487143|   -3.267145|
|         982|   -7.216200|   -7.316552|   -7.416606|   -3.267147|
|         983|   -7.160822|   -7.219083|   -7.398246|   -3.267149|
|         984|   -7.124294|   -7.181635|   -7.429354|   -3.267152|
|         985|   -7.119276|   -7.198534|   -7.512160|   -3.267155|
|         986|   -7.148472|   -7.272128|   -7.643009|   -3.267156|
|         987|   -7.208557|   -7.409473|   -7.737512|   -3.267158|
|         988|   -7.278833|   -7.560622|   -7.646276|   -3.267158|
|         989|   -7.302700|   -7.486256|   -7.505514|   -3.267157|
|         990|   -7.246854|   -7.309347|   -7.409685|   -3.267155|
|         991|   -7.163881|   -7.187376|   -7.363329|   -3.267153|
|         992|   -7.099397|   -7.122300|   -7.362337|   -3.267150|
|         993|   -7.066207|   -7.105267|   -7.406733|   -3.267147|
|         994|   -7.065861|   -7.133591|   -7.501529|   -3.267145|
|         995|   -7.097520|   -7.211046|   -7.649437|   -3.267143|
|         996|   -7.157658|   -7.347086|   -7.778646|   -3.267142|
|         997|   -7.231860|   -7.529671|   -7.703398|   -3.267142|
|         998|   -7.280615|   -7.562647|   -7.561509|   -3.267143|
|         999|   -7.265410|   -7.404863|   -7.469280|   -3.267145|
|        1000|   -7.212038|   -7.282096|   -7.431441|   -3.267147|
+-----------------------------------------------------------------------+
[...]
|        8434|  -10.450779|   -9.985044|  -10.438671|   -3.267078|
|        8435|  -10.450844|   -9.985103|  -10.438726|   -3.267078|
|        8436|  -10.450909|   -9.985163|  -10.438780|   -3.267078|
|        8437|  -10.450974|   -9.985223|  -10.438835|   -3.267078|
|        8438|  -10.451039|   -9.985282|  -10.438890|   -3.267078|
|        8439|  -10.451104|   -9.985342|  -10.438945|   -3.267078|
|        8440|  -10.451169|   -9.985402|  -10.438999|   -3.267078|
|        8441|  -10.451234|   -9.985461|  -10.439054|   -3.267078|
|        8442|  -10.451299|   -9.985521|  -10.439109|   -3.267078|
|        8443|  -10.451364|   -9.985581|  -10.439163|   -3.267078|
|        8444|  -10.451429|   -9.985640|  -10.439218|   -3.267078|
|        8445|  -10.451494|   -9.985700|  -10.439273|   -3.267078|
|        8446|  -10.451559|   -9.985760|  -10.439327|   -3.267078|
|        8447|  -10.451624|   -9.985820|  -10.439382|   -3.267078|
|        8448|  -10.451689|   -9.985879|  -10.439437|   -3.267078|
|        8449|  -10.451754|   -9.985939|  -10.439492|   -3.267078|
|        8450|  -10.451819|   -9.985999|  -10.439546|   -3.267078|
|        8451|  -10.451884|   -9.986058|  -10.439601|   -3.267078|
|        8452|  -10.451949|   -9.986118|  -10.439656|   -3.267078|
|        8453|  -10.452014|   -9.986178|  -10.439710|   -3.267078|
|        8454|  -10.452080|   -9.986237|  -10.439765|   -3.267078|
|        8455|  -10.452145|   -9.986297|  -10.439820|   -3.267078|
|        8456|  -10.452210|   -9.986357|  -10.439875|   -3.267078|
|        8457|  -10.452275|   -9.986417|  -10.439929|   -3.267078|
|        8458|  -10.452340|   -9.986476|  -10.439984|   -3.267078|
|        8459|  -10.452405|   -9.986536|  -10.440039|   -3.267078|
|        8460|  -10.452470|   -9.986596|  -10.440094|   -3.267078|
|        8461|  -10.452535|   -9.986655|  -10.440148|   -3.267078|
|        8462|  -10.452600|   -9.986715|  -10.440203|   -3.267078|
|        8463|  -10.452665|   -9.986775|  -10.440258|   -3.267078|
|        8464|  -10.452730|   -9.986834|  -10.440312|   -3.267078|
|        8465|  -10.452795|   -9.986894|  -10.440367|   -3.267078|
|        8466|  -10.452860|   -9.986954|  -10.440422|   -3.267078|
|        8467|  -10.452925|   -9.987014|  -10.440477|   -3.267078|
|        8468|  -10.452990|   -9.987073|  -10.440531|   -3.267078|
|        8469|  -10.453055|   -9.987133|  -10.440586|   -3.267078|
|        8470|  -10.453120|   -9.987193|  -10.440641|   -3.267078|
|        8471|  -10.453185|   -9.987252|  -10.440696|   -3.267078|
|        8472|  -10.453250|   -9.987312|  -10.440750|   -3.267078|
|        8473|  -10.453315|   -9.987372|  -10.440805|   -3.267078|
|        8474|  -10.453380|   -9.987432|  -10.440860|   -3.267078|
|        8475|  -10.453445|   -9.987491|  -10.440915|   -3.267078|
|        8476|  -10.453510|   -9.987551|  -10.440969|   -3.267078|
|        8477|  -10.453575|   -9.987611|  -10.441024|   -3.267078|
|        8478|  -10.453640|   -9.987670|  -10.441079|   -3.267078|
|        8479|  -10.453705|   -9.987730|  -10.441133|   -3.267078|
|        8480|  -10.453770|   -9.987790|  -10.441188|   -3.267078|
|        8481|  -10.453835|   -9.987850|  -10.441243|   -3.267078|
|        8482|  -10.453900|   -9.987909|  -10.441298|   -3.267078|
|        8483|  -10.453965|   -9.987969|  -10.441353|   -3.267078|
|        8484|  -10.454030|   -9.988029|  -10.441407|   -3.267078|
|        8485|  -10.454095|   -9.988088|  -10.441462|   -3.267078|
|        8486|  -10.454160|   -9.988148|  -10.441517|   -3.267078|
|        8487|  -10.454225|   -9.988208|  -10.441571|   -3.267078|
|        8488|  -10.454290|   -9.988268|  -10.441626|   -3.267078|
|        8489|  -10.454355|   -9.988327|  -10.441681|   -3.267078|
|        8490|  -10.454420|   -9.988387|  -10.441736|   -3.267078|
|        8491|  -10.454485|   -9.988447|  -10.441791|   -3.267078|
|        8492|  -10.454550|   -9.988506|  -10.441845|   -3.267078|
|        8493|  -10.454616|   -9.988566|  -10.441900|   -3.267078|
|        8494|  -10.454681|   -9.988626|  -10.441955|   -3.267078|
|        8495|  -10.454746|   -9.988686|  -10.442010|   -3.267078|
|        8496|  -10.454811|   -9.988745|  -10.442064|   -3.267078|
|        8497|  -10.454876|   -9.988805|  -10.442119|   -3.267078|
|        8498|  -10.454941|   -9.988865|  -10.442174|   -3.267078|
|        8499|  -10.455006|   -9.988924|  -10.442229|   -3.267078|
|        8500|  -10.455071|   -9.988984|  -10.442283|   -3.267078|
|        8501|  -10.455136|   -9.989044|  -10.442338|   -3.267078|
|        8502|  -10.455201|   -9.989104|  -10.442393|   -3.267078|
|        8503|  -10.455266|   -9.989163|  -10.442448|   -3.267078|
|        8504|  -10.455331|   -9.989223|  -10.442503|   -3.267078|
|        8505|  -10.455396|   -9.989283|  -10.442557|   -3.267078|
|        8506|  -10.455461|   -9.989343|  -10.442612|   -3.267078|
|        8507|  -10.455526|   -9.989402|  -10.442667|   -3.267078|
|        8508|  -10.455591|   -9.989462|  -10.442722|   -3.267078|
|        8509|  -10.455656|   -9.989522|  -10.442776|   -3.267078|
|        8510|  -10.455721|   -9.989582|  -10.442831|   -3.267078|
|        8511|  -10.455786|   -9.989641|  -10.442886|   -3.267078|
|        8512|  -10.455851|   -9.989701|  -10.442941|   -3.267078|
|        8513|  -10.455916|   -9.989761|  -10.442996|   -3.267078|
|        8514|  -10.455981|   -9.989820|  -10.443050|   -3.267078|
|        8515|  -10.456046|   -9.989880|  -10.443105|   -3.267078|
|        8516|  -10.456111|   -9.989940|  -10.443160|   -3.267078|
|        8517|  -10.456177|   -9.990000|  -10.443215|   -3.267078|
|        8518|  -10.456242|   -9.990059|  -10.443269|   -3.267078|
|        8519|  -10.456307|   -9.990119|  -10.443324|   -3.267078|
|        8520|  -10.456372|   -9.990179|  -10.443379|   -3.267078|
|        8521|  -10.456437|   -9.990239|  -10.443434|   -3.267078|
|        8522|  -10.456502|   -9.990298|  -10.443489|   -3.267078|
|        8523|  -10.456567|   -9.990358|  -10.443543|   -3.267078|
|        8524|  -10.456632|   -9.990418|  -10.443598|   -3.267078|
|        8525|  -10.456697|   -9.990478|  -10.443653|   -3.267078|
|        8526|  -10.456762|   -9.990537|  -10.443708|   -3.267078|
|        8527|  -10.456827|   -9.990597|  -10.443763|   -3.267078|
|        8528|  -10.456892|   -9.990657|  -10.443817|   -3.267078|
|        8529|  -10.456957|   -9.990717|  -10.443872|   -3.267078|
|        8530|  -10.457022|   -9.990776|  -10.443927|   -3.267078|
|        8531|  -10.457087|   -9.990836|  -10.443982|   -3.267078|
|        8532|  -10.457152|   -9.990896|  -10.444037|   -3.267078|
|        8533|  -10.457217|   -9.990956|  -10.444091|   -3.267078|
|        8534|  -10.457282|   -9.991015|  -10.444146|   -3.267078|
|        8535|  -10.457347|   -9.991075|  -10.444201|   -3.267078|
|        8536|  -10.457412|   -9.991135|  -10.444256|   -3.267078|
|        8537|  -10.457477|   -9.991195|  -10.444311|   -3.267078|
|        8538|  -10.457543|   -9.991254|  -10.444365|   -3.267078|
|        8539|  -10.457608|   -9.991314|  -10.444420|   -3.267078|
|        8540|  -10.457673|   -9.991374|  -10.444475|   -3.267078|
|        8541|  -10.457738|   -9.991434|  -10.444530|   -3.267078|
|        8542|  -10.457803|   -9.991493|  -10.444585|   -3.267078|
|        8543|  -10.457868|   -9.991553|  -10.444640|   -3.267078|
|        8544|  -10.457933|   -9.991613|  -10.444694|   -3.267078|
|        8545|  -10.457998|   -9.991673|  -10.444749|   -3.267078|
|        8546|  -10.458063|   -9.991732|  -10.444804|   -3.267078|
|        8547|  -10.458128|   -9.991792|  -10.444859|   -3.267078|
|        8548|  -10.458193|   -9.991852|  -10.444914|   -3.267078|
|        8549|  -10.458258|   -9.991912|  -10.444968|   -3.267078|
|        8550|  -10.458323|   -9.991971|  -10.445023|   -3.267078|
|        8551|  -10.458388|   -9.992031|  -10.445078|   -3.267078|
|        8552|  -10.458453|   -9.992091|  -10.445133|   -3.267078|
|        8553|  -10.458518|   -9.992151|  -10.445188|   -3.267078|
|        8554|  -10.458583|   -9.992210|  -10.445243|   -3.267078|
|        8555|  -10.458648|   -9.992270|  -10.445297|   -3.267078|
|        8556|  -10.458714|   -9.992330|  -10.445352|   -3.267078|
|        8557|  -10.458779|   -9.992390|  -10.445407|   -3.267078|
|        8558|  -10.458844|   -9.992450|  -10.445462|   -3.267078|
|        8559|  -10.458909|   -9.992509|  -10.445517|   -3.267078|
|        8560|  -10.458974|   -9.992569|  -10.445572|   -3.267078|
|        8561|  -10.459039|   -9.992629|  -10.445626|   -3.267078|
|        8562|  -10.459104|   -9.992689|  -10.445681|   -3.267078|
|        8563|  -10.459169|   -9.992748|  -10.445736|   -3.267078|
|        8564|  -10.459234|   -9.992808|  -10.445791|   -3.267078|
|        8565|  -10.459299|   -9.992868|  -10.445846|   -3.267078|
|        8566|  -10.459364|   -9.992928|  -10.445901|   -3.267078|
|        8567|  -10.459429|   -9.992987|  -10.445956|   -3.267078|
|        8568|  -10.459494|   -9.993047|  -10.446010|   -3.267078|
|        8569|  -10.459559|   -9.993107|  -10.446065|   -3.267078|
|        8570|  -10.459624|   -9.993167|  -10.446120|   -3.267078|
|        8571|  -10.459690|   -9.993227|  -10.446175|   -3.267078|
|        8572|  -10.459755|   -9.993286|  -10.446230|   -3.267078|
|        8573|  -10.459820|   -9.993346|  -10.446285|   -3.267078|
|        8574|  -10.459885|   -9.993406|  -10.446339|   -3.267078|
|        8575|  -10.459950|   -9.993466|  -10.446394|   -3.267078|
|        8576|  -10.460015|   -9.993525|  -10.446449|   -3.267078|
|        8577|  -10.460080|   -9.993585|  -10.446504|   -3.267078|
|        8578|  -10.460145|   -9.993645|  -10.446559|   -3.267078|
|        8579|  -10.460210|   -9.993705|  -10.446614|   -3.267078|
|        8580|  -10.460275|   -9.993765|  -10.446669|   -3.267078|
|        8581|  -10.460340|   -9.993824|  -10.446723|   -3.267078|
|        8582|  -10.460405|   -9.993884|  -10.446778|   -3.267078|
|        8583|  -10.460470|   -9.993944|  -10.446833|   -3.267078|
|        8584|  -10.460535|   -9.994004|  -10.446888|   -3.267078|
|        8585|  -10.460601|   -9.994063|  -10.446943|   -3.267078|
|        8586|  -10.460666|   -9.994123|  -10.446998|   -3.267078|
|        8587|  -10.460731|   -9.994183|  -10.447053|   -3.267078|
|        8588|  -10.460796|   -9.994243|  -10.447108|   -3.267078|
|        8589|  -10.460861|   -9.994303|  -10.447162|   -3.267078|
|        8590|  -10.460926|   -9.994362|  -10.447217|   -3.267078|
|        8591|  -10.460991|   -9.994422|  -10.447272|   -3.267078|
|        8592|  -10.461056|   -9.994482|  -10.447327|   -3.267078|
|        8593|  -10.461121|   -9.994542|  -10.447382|   -3.267078|
|        8594|  -10.461186|   -9.994602|  -10.447437|   -3.267078|
|        8595|  -10.461251|   -9.994661|  -10.447492|   -3.267078|
|        8596|  -10.461316|   -9.994721|  -10.447547|   -3.267078|
|        8597|  -10.461382|   -9.994781|  -10.447601|   -3.267078|
|        8598|  -10.461447|   -9.994841|  -10.447656|   -3.267078|
|        8599|  -10.461512|   -9.994900|  -10.447711|   -3.267078|
|        8600|  -10.461577|   -9.994960|  -10.447766|   -3.267078|
|        8601|  -10.461642|   -9.995020|  -10.447821|   -3.267078|
|        8602|  -10.461707|   -9.995080|  -10.447876|   -3.267078|
|        8603|  -10.461772|   -9.995140|  -10.447931|   -3.267078|
|        8604|  -10.461837|   -9.995199|  -10.447986|   -3.267078|
|        8605|  -10.461902|   -9.995259|  -10.448040|   -3.267078|
|        8606|  -10.461967|   -9.995319|  -10.448095|   -3.267078|
|        8607|  -10.462032|   -9.995379|  -10.448150|   -3.267078|
|        8608|  -10.462097|   -9.995439|  -10.448205|   -3.267078|
|        8609|  -10.462163|   -9.995498|  -10.448260|   -3.267078|
|        8610|  -10.462228|   -9.995558|  -10.448315|   -3.267078|
|        8611|  -10.462293|   -9.995618|  -10.448370|   -3.267078|
|        8612|  -10.462358|   -9.995678|  -10.448425|   -3.267078|
|        8613|  -10.462423|   -9.995738|  -10.448480|   -3.267078|
|        8614|  -10.462488|   -9.995797|  -10.448535|   -3.267078|
|        8615|  -10.462553|   -9.995857|  -10.448589|   -3.267078|
|        8616|  -10.462618|   -9.995917|  -10.448644|   -3.267078|
|        8617|  -10.462683|   -9.995977|  -10.448699|   -3.267078|
|        8618|  -10.462748|   -9.996037|  -10.448754|   -3.267078|
|        8619|  -10.462813|   -9.996097|  -10.448809|   -3.267078|
|        8620|  -10.462879|   -9.996156|  -10.448864|   -3.267078|
|        8621|  -10.462944|   -9.996216|  -10.448919|   -3.267078|
|        8622|  -10.463009|   -9.996276|  -10.448974|   -3.267078|
|        8623|  -10.463074|   -9.996336|  -10.449029|   -3.267078|
|        8624|  -10.463139|   -9.996396|  -10.449084|   -3.267078|
|        8625|  -10.463204|   -9.996455|  -10.449139|   -3.267078|
|        8626|  -10.463269|   -9.996515|  -10.449193|   -3.267078|
|        8627|  -10.463334|   -9.996575|  -10.449248|   -3.267078|
|        8628|  -10.463399|   -9.996635|  -10.449303|   -3.267078|
|        8629|  -10.463464|   -9.996695|  -10.449358|   -3.267078|
|        8630|  -10.463530|   -9.996754|  -10.449413|   -3.267078|
|        8631|  -10.463595|   -9.996814|  -10.449468|   -3.267078|
|        8632|  -10.463660|   -9.996874|  -10.449523|   -3.267078|
|        8633|  -10.463725|   -9.996934|  -10.449578|   -3.267078|
|        8634|  -10.463790|   -9.996994|  -10.449633|   -3.267078|
|        8635|  -10.463855|   -9.997054|  -10.449688|   -3.267078|
|        8636|  -10.463920|   -9.997113|  -10.449743|   -3.267078|
|        8637|  -10.463985|   -9.997173|  -10.449798|   -3.267078|
|        8638|  -10.464050|   -9.997233|  -10.449852|   -3.267078|
|        8639|  -10.464115|   -9.997293|  -10.449907|   -3.267078|
|        8640|  -10.464181|   -9.997353|  -10.449962|   -3.267078|
|        8641|  -10.464246|   -9.997412|  -10.450017|   -3.267078|
|        8642|  -10.464311|   -9.997472|  -10.450072|   -3.267078|
|        8643|  -10.464376|   -9.997532|  -10.450127|   -3.267078|
|        8644|  -10.464441|   -9.997592|  -10.450182|   -3.267078|
|        8645|  -10.464506|   -9.997652|  -10.450237|   -3.267078|
|        8646|  -10.464571|   -9.997712|  -10.450292|   -3.267078|
|        8647|  -10.464636|   -9.997771|  -10.450347|   -3.267078|
|        8648|  -10.464701|   -9.997831|  -10.450402|   -3.267078|
|        8649|  -10.464766|   -9.997891|  -10.450457|   -3.267078|
|        8650|  -10.464832|   -9.997951|  -10.450512|   -3.267078|
|        8651|  -10.464897|   -9.998011|  -10.450567|   -3.267078|
|        8652|  -10.464962|   -9.998071|  -10.450622|   -3.267078|
|        8653|  -10.465027|   -9.998130|  -10.450677|   -3.267078|
|        8654|  -10.465092|   -9.998190|  -10.450731|   -3.267078|
|        8655|  -10.465157|   -9.998250|  -10.450786|   -3.267078|
|        8656|  -10.465222|   -9.998310|  -10.450841|   -3.267078|
|        8657|  -10.465287|   -9.998370|  -10.450896|   -3.267078|
|        8658|  -10.465352|   -9.998430|  -10.450951|   -3.267078|
|        8659|  -10.465418|   -9.998489|  -10.451006|   -3.267078|
|        8660|  -10.465483|   -9.998549|  -10.451061|   -3.267078|
|        8661|  -10.465548|   -9.998609|  -10.451116|   -3.267078|
|        8662|  -10.465613|   -9.998669|  -10.451171|   -3.267078|
|        8663|  -10.465678|   -9.998729|  -10.451226|   -3.267078|
|        8664|  -10.465743|   -9.998789|  -10.451281|   -3.267078|
|        8665|  -10.465808|   -9.998848|  -10.451336|   -3.267078|
|        8666|  -10.465873|   -9.998908|  -10.451391|   -3.267078|
|        8667|  -10.465939|   -9.998968|  -10.451446|   -3.267078|
|        8668|  -10.466004|   -9.999028|  -10.451501|   -3.267078|
|        8669|  -10.466069|   -9.999088|  -10.451556|   -3.267078|
|        8670|  -10.466134|   -9.999148|  -10.451611|   -3.267078|
|        8671|  -10.466199|   -9.999208|  -10.451666|   -3.267078|
|        8672|  -10.466264|   -9.999267|  -10.451721|   -3.267078|
|        8673|  -10.466329|   -9.999327|  -10.451776|   -3.267078|
|        8674|  -10.466394|   -9.999387|  -10.451831|   -3.267078|
|        8675|  -10.466460|   -9.999447|  -10.451886|   -3.267078|
|        8676|  -10.466525|   -9.999507|  -10.451941|   -3.267078|
|        8677|  -10.466590|   -9.999567|  -10.451996|   -3.267078|
|        8678|  -10.466655|   -9.999627|  -10.452051|   -3.267078|
|        8679|  -10.466720|   -9.999686|  -10.452106|   -3.267078|
|        8680|  -10.466785|   -9.999746|  -10.452161|   -3.267078|
|        8681|  -10.466850|   -9.999806|  -10.452215|   -3.267078|
|        8682|  -10.466915|   -9.999866|  -10.452270|   -3.267078|
|        8683|  -10.466980|   -9.999926|  -10.452325|   -3.267078|
|        8684|  -10.467046|   -9.999986|  -10.452380|   -3.267078|
|        8685|  -10.467111|  -10.000045|  -10.452435|   -3.267078|

----------------------------- Solver Exit -------------------------------
All convergence criteria satisfied.
+-----------------------------------------------------------------------+
|      Convergence Field     |     Value    |   Criterion  |  Converged |
+-----------------------------------------------------------------------+
|                      rms[P]|      -10.4671|         < -10|         Yes|
|                      rms[U]|           -10|         < -10|         Yes|
|                      rms[V]|      -10.4524|         < -10|         Yes|
+-----------------------------------------------------------------------+
-------------------------------------------------------------------------
+-----------------------------------------------------------------------+
|        File Writing Summary       |              Filename             |
+-----------------------------------------------------------------------+
|SU2 restart                        |restart_verification_mixtureviscosity_smallbox.dat|
|                                   |                    (0.642207 MB/s)|
|Paraview                           |flow_verification_mixtureviscosity_smallbox_00008685.vtu|
|                                   |                   (0.0340489 MB/s)|
|Paraview surface                   |surface_verification_mixtureviscosity_smallbox.vtu|
|                                   |                     (1.16529 MB/s)|
+-----------------------------------------------------------------------+

------------------------- Solver Postprocessing -------------------------
Deleted CNumerics container.
Deleted CIntegration container.
Deleted CSolver container.
Deleted CIteration container.
Deleted CInterface container.
Deleted CGeometry container.
Deleted CFreeFormDefBox class.
Deleted CSurfaceMovement class.
Deleted CVolumetricMovement class.
Deleted CConfig container.
Deleted nInst container.
Deleted COutput class.
-------------------------------------------------------------------------


-------------------------- Performance Summary --------------------------
Simulation totals:
   Wall-clock time (hrs):   0.0505555 |            Core-hrs:     3.53888
                   Cores:          70 |          DOFs/point:           5
             Points/core:     5.42857 |   Ghost points/core:     13.2286
 Ghost/Owned Point Ratio:     2.43684 | 

Preprocessing phase:
       Preproc. Time (s):    0.313128 |   Preproc. Time (%):    0.172049

Compute phase:
        Compute Time (s):     173.653 |    Compute Time (%):     95.4136
         Iteration count:        8686 |         Avg. s/iter:   0.0199922
     Core-s/iter/Mpoints:     1071.56 |           Mpoints/s:   0.0653254

Output phase:
         Output Time (s):     8.03403 |     Output Time (%):     4.41431
            Output count:           1 |       Avg. s/output:     8.03403
 Restart Aggr. BW (MB/s):     9.68219 |           MB/s/core:    0.138317
-------------------------------------------------------------------------


------------------------- Exit Success (SU2_CFD) ------------------------

