scsub> Executing:  'cd /home/hem1dev/Codes/SU2_Github_Mark_Test/SU2/Venturi'


WARNING: CONV_CRITERIA is deprecated. SU2 will choose the criteria automatically based on the CONV_FIELD.
That is, RESIDUAL for any RMS_* BGS_* value, and CAUCHY for coefficients such as DRAG etc.


-------------------------------------------------------------------------
|    ___ _   _ ___                                                      |
|   / __| | | |_  )   Release 7.1.1 "Blackbird"                         |
|   \__ \ |_| |/ /                                                      |
|   |___/\___//___|   Suite (Computational Fluid Dynamics Code)         |
|                                                                       |
-------------------------------------------------------------------------
| SU2 Project Website: https://su2code.github.io                        |
|                                                                       |
| The SU2 Project is maintained by the SU2 Foundation                   |
| (http://su2foundation.org)                                            |
-------------------------------------------------------------------------
| Copyright 2012-2021, SU2 Contributors                                 |
|                                                                       |
| SU2 is free software; you can redistribute it and/or                  |
| modify it under the terms of the GNU Lesser General Public            |
| License as published by the Free Software Foundation; either          |
| version 2.1 of the License, or (at your option) any later version.    |
|                                                                       |
| SU2 is distributed in the hope that it will be useful,                |
| but WITHOUT ANY WARRANTY; without even the implied warranty of        |
| MERCHANTABILITY or FITNESS FOR A PARTICULAR PURPOSE. See the GNU      |
| Lesser General Public License for more details.                       |
|                                                                       |
| You should have received a copy of the GNU Lesser General Public      |
| License along with SU2. If not, see <http://www.gnu.org/licenses/>.   |
-------------------------------------------------------------------------


WARNING: CONV_CRITERIA is deprecated. SU2 will choose the criteria automatically based on the CONV_FIELD.
That is, RESIDUAL for any RMS_* BGS_* value, and CAUCHY for coefficients such as DRAG etc.


Parsing config file for zone 0


WARNING: CONV_CRITERIA is deprecated. SU2 will choose the criteria automatically based on the CONV_FIELD.
That is, RESIDUAL for any RMS_* BGS_* value, and CAUCHY for coefficients such as DRAG etc.


----------------- Physical Case Definition ( Zone 0 ) -------------------
Incompressible RANS equations.
Turbulence model: Menter's SST
Hybrid RANS/LES: No Hybrid RANS/LES
No restart solution, use the values at infinity (freestream).
Dimensional simulation.
The reference area is 1 m^2.
The semi-span will be computed using the max y(3D) value.
The reference length is 1 m.
Input mesh file name: c6_cms_venturi.cgns

--------------- Space Numerical Integration ( Zone 0 ) ------------------
Flux difference splitting (FDS) upwind scheme for the flow inviscid terms.
Second order integration in space, with slope limiter.
No slope-limiting method. 
Average of gradients with correction (viscous flow terms).
Average of gradients with correction (viscous turbulence terms).
Gradient for upwind reconstruction: inverse-distance weighted Least-Squares.
Gradient for viscous and source terms: inverse-distance weighted Least-Squares.

--------------- Time Numerical Integration  ( Zone 0 ) ------------------
Local time stepping (steady state simulation).
Euler implicit method for the flow equations.
FGMRES is used for solving the linear system.
Using a ILU(0) preconditioning.
Convergence criteria of the linear solver: 1e-08.
Max number of linear iterations: 20.
No CFL adaptation.
Courant-Friedrichs-Lewy number:      100
Euler implicit time integration for the turbulence model.

------------------ Convergence Criteria  ( Zone 0 ) ---------------------
Maximum number of solver subiterations: 10000.
Begin convergence monitoring at iteration 10.
Residual minimum value: 1e-10.
Cauchy series min. value: 1e-06.
Number of Cauchy elements: 100.
Begin windowed time average at iteration 0.

-------------------- Output Information ( Zone 0 ) ----------------------
Writing solution files every 500 iterations.
Writing the convergence history file every 1 inner iterations.
Writing the screen convergence history every 1 inner iterations.
The tabular file format is CSV (.csv).
Convergence history file name: history_test.
Forces breakdown file name: forces_breakdown.dat.
Surface file name: surface_flow_venturi_mixturedensity_30kW_fine_test.
Volume file name: flow_venturi_mixturedensity_30kW_fine_test.
Restart file name: restart_venturi_mixturedensity_30kW_fine_test.dat.

------------- Config File Boundary Information ( Zone 0 ) ---------------
+-----------------------------------------------------------------------+
|                        Marker Type|                        Marker Name|
+-----------------------------------------------------------------------+
|                     Symmetry plane|                               axis|
+-----------------------------------------------------------------------+
|                     Inlet boundary|                          gas_inlet|
|                                   |                          air_inlet|
+-----------------------------------------------------------------------+
|                    Outlet boundary|                             outlet|
+-----------------------------------------------------------------------+
|                     Heat flux wall|            wall-component1-surface|
+-----------------------------------------------------------------------+

-------------------- Output Preprocessing ( Zone 0 ) --------------------
Screen output fields: INNER_ITER, RMS_PRESSURE, RMS_VELOCITY-X, RMS_VELOCITY-Y, RMS_PASSIVE_SCALAR
History output group(s): RMS_RES, AERO_COEFF, FLOW_COEFF
Convergence field(s): RMS_PRESSURE, RMS_VELOCITY-X, RMS_VELOCITY-Y, RMS_TKE
Warning: No (valid) fields chosen for time convergence monitoring. Time convergence monitoring inactive.
  Info: Ignoring the following volume output fields/groups:
  SOURCE, LOOKUP
Volume output fields: DENSITY, SOLUTION, PRIMITIVE, RESIDUAL, COORDINATES

------------------- Geometry Preprocessing ( Zone 0 ) -------------------
Reading the CGNS file: c6_cms_venturi.cgns.
CGNS file contains 1 database(s).
Database 1, Base:  cell dimension of 2, physical dimension of 2.
1 total zone(s).
Zone 1, Zone: 292948 total vertices, 295883 total elements.
Loading CoordinateX values into linear partitions.
Loading CoordinateY values into linear partitions.
Distributing connectivity across all ranks.
Number of connectivity sections is 6.
Section gas_inlet contains 51 elements of type Mixed.
Section air_inlet contains 150 elements of type Mixed.
Section outlet contains 157 elements of type Mixed.
Section axis contains 1721 elements of type Mixed.
Section component1-surface contains 290183 elements of type Mixed.
Section wall-component1-surface contains 3621 elements of type Mixed.
Loading surface section gas_inlet from file.
Loading surface section air_inlet from file.
Loading surface section outlet from file.
Loading surface section axis from file.
Loading volume section component1-surface from file.
Loading surface section wall-component1-surface from file.
Two dimensional problem.
292948 grid points before partitioning.
290183 volume elements before partitioning.
5 surface markers.
51 boundary elements in index 0 (Marker = gas_inlet).
150 boundary elements in index 1 (Marker = air_inlet).
157 boundary elements in index 2 (Marker = outlet).
1721 boundary elements in index 3 (Marker = axis).
3621 boundary elements in index 4 (Marker = wall-component1-surface).
Executing the partitioning functions.
Building the graph adjacency structure.
Calling ParMETIS... graph partitioning complete (8746 edge cuts).
Distributing ParMETIS coloring.
Rebalancing vertices.
Rebalancing volume element connectivity.
Rebalancing markers and surface elements.
310564 vertices including ghost points. 
298925 interior elements including halo cells. 
176 triangles.
298749 quadrilaterals.
Establishing MPI communication patterns.
Setting point connectivity.
Renumbering points (Reverse Cuthill McKee Ordering).
Recomputing point connectivity.
Setting element connectivity.
Checking the numerical grid orientation.
All volume elements are correctly orientend.
All surface elements are correctly orientend.
Identifying edges and vertices.
Setting the control volume structure.
Area of the computational grid: 0.00281152.
Searching for the closest normal neighbors to the surfaces.
Storing a mapping from global to local point index.
Compute the surface curvature.
Max K: 25766.3. Mean K: 66.0693. Standard deviation K: 1007.76.
Checking for periodicity.
Computing mesh quality statistics for the dual control volumes.
+--------------------------------------------------------------+
|           Mesh Quality Metric|        Minimum|        Maximum|
+--------------------------------------------------------------+
|    Orthogonality Angle (deg.)|        45.2115|             90|
|     CV Face Area Aspect Ratio|              1|        10.3208|
|           CV Sub-Volume Ratio|              1|        9.85984|
+--------------------------------------------------------------+
Finding max control volume width.
Communicating number of neighbors.
Wetted area = 0 m.
Area projection in the x-plane = 0 m, y-plane = 0 m.
Max. coordinate in the x-direction = -1e+10 m, y-direction = -1e+10 m.
Min. coordinate in the x-direction = 1e+10 m, y-direction = 1e+10 m.
Checking if Euler & Symmetry markers are straight/plane:
Boundary marker axis is a single straight.
Computing wall distances.

-------------------- Solver Preprocessing ( Zone 0 ) --------------------
Incompressible flow: rho_ref, vel_ref, temp_ref, p_ref
are set to 1.0 in order to perform a dimensional calculation.
Force coefficients computed using initial values.
The reference area for force coeffs. is 1 m^2.
The reference length for force coeffs. is 1 m.
The pressure is decomposed into thermodynamic and dynamic components.
The initial value of the dynamic pressure is 0.
Mach number: 0, computed using fluid speed of sound.
For external flows, the initial state is imposed at the far-field.
Angle of attack (deg): 0, computed using the initial velocity.
Side slip angle (deg): 0, computed using the initial velocity.
Reynolds number per meter: 65290.8, computed using initial values.
Reynolds number is a byproduct of inputs only (not used internally).
SI units only. The grid should be dimensional (meters).
Energy equation is active and coupled for variable density.

-- Models:
+------------------------------------------------------------------------------+
|          Viscosity Model|        Conductivity Model|              Fluid Model|
+------------------------------------------------------------------------------+
|       CONSTANT_VISCOSITY|                  CONSTANT|+------------------------------------------------------------------------------+
-- Fluid properties:
+------------------------------------------------------------------------------+
|                  Name|    Dim. value|    Ref. value|      Unit|Non-dim. value|
+------------------------------------------------------------------------------+
|             Viscosity|     1.118e-05|             1|   N.s/m^2|     1.118e-05|
+------------------------------------------------------------------------------+
|       Molecular Cond.|         0.072|             1|   W/m^2.K|         0.072|
+------------------------------------------------------------------------------+
-- Initial and free-stream conditions:
+------------------------------------------------------------------------------+
|                  Name|    Dim. value|    Ref. value|      Unit|Non-dim. value|
+------------------------------------------------------------------------------+
|      Dynamic Pressure|             0|             1|        Pa|             0|
|        Total Pressure|      0.585985|             1|        Pa|      0.585985|
|               Density|       1.17197|             1|    kg/m^3|       1.17197|
|           Temperature|           300|             1|         K|           300|
|            Velocity-X|             1|             1|       m/s|             1|
|            Velocity-Y|             0|             1|       m/s|             0|
|    Velocity Magnitude|             1|             1|       m/s|             1|
+------------------------------------------------------------------------------+
|             Viscosity|     1.795e-05|             1|   N.s/m^2|     1.795e-05|
|          Conductivity|             -|             1|   W/m^2.K|             -|
|     Turb. Kin. Energy|       0.00375|             1|   m^2/s^2|       0.00375|
|     Spec. Dissipation|       24.4841|             1|       1/s|       24.4841|
+------------------------------------------------------------------------------+
|           Mach Number|             -|             -|         -|             0|
|       Reynolds Number|             -|             -|         -|       65290.8|
+------------------------------------------------------------------------------+
Initialize Jacobian structure (Navier-Stokes). MG level: 0.
Initialize Jacobian structure (passive scalar model).
Initialize Jacobian structure (SST model).

------------------- Numerics Preprocessing ( Zone 0 ) -------------------

----------------- Integration Preprocessing ( Zone 0 ) ------------------

------------------- Iteration Preprocessing ( Zone 0 ) ------------------
Euler/Navier-Stokes/RANS fluid iteration.

------------------------------ Begin Solver -----------------------------

Simulation Run using the Single-zone Driver
Initializing passive scalar (initial condition).
initialization = 1 1
+----------------------------------------------------------------+
|  Inner_Iter|      rms[P]|      rms[U]|      rms[V]|      rms[c]|
+----------------------------------------------------------------+
|           0|   -5.116953|   -4.847332|   -4.364756|   -5.710014|
|           1|   -4.986664|   -4.844342|   -4.071097|   -5.228501|
|           2|   -5.397912|   -4.543874|   -4.030100|   -5.335502|
|           3|   -5.504254|   -4.736086|   -4.076735|   -5.471068|
|           4|   -5.655709|   -4.832053|   -4.095553|   -5.522869|
|           5|   -5.628521|   -4.890813|   -4.330221|   -5.548290|
|           6|   -5.728511|   -4.859052|   -4.567050|   -5.577568|
|           7|   -5.768854|   -4.803265|   -4.706550|   -5.628017|
|           8|   -5.800315|   -4.764661|   -4.691484|   -5.690207|
|           9|   -5.808394|   -4.744324|   -4.588951|   -5.741743|
|          10|   -5.782138|   -4.732260|   -4.425757|   -5.767585|
|          11|   -5.754005|   -4.720710|   -4.321395|   -5.770184|
|          12|   -5.755093|   -4.708718|   -4.284457|   -5.758293|
|          13|   -5.783110|   -4.695917|   -4.288741|   -5.741342|
|          14|   -5.821328|   -4.680058|   -4.315588|   -5.726166|
|          15|   -5.857393|   -4.659061|   -4.350718|   -5.715805|
|          16|   -5.886796|   -4.633480|   -4.380310|   -5.710125|
|          17|   -5.908629|   -4.606013|   -4.394133|   -5.707452|
|          18|   -5.923202|   -4.579339|   -4.389964|   -5.705834|
|          19|   -5.932291|   -4.554864|   -4.373604|   -5.703807|
|          20|   -5.938880|   -4.532817|   -4.353508|   -5.700620|
|          21|   -5.945814|   -4.512848|   -4.336148|   -5.696153|
|          22|   -5.954637|   -4.494528|   -4.324539|   -5.690673|
|          23|   -5.965414|   -4.477528|   -4.318531|   -5.684602|
|          24|   -5.977309|   -4.461622|   -4.316719|   -5.678348|
|          25|   -5.989324|   -4.446632|   -4.316917|   -5.672198|
|          26|   -6.000764|   -4.432395|   -4.316673|   -5.666282|
|          27|   -6.011318|   -4.418769|   -4.315414|   -5.660597|
|          28|   -6.020978|   -4.405680|   -4.313394|   -5.655098|
|          29|   -6.029871|   -4.393074|   -4.310929|   -5.649732|
|          30|   -6.038180|   -4.380902|   -4.308495|   -5.644458|
|          31|   -6.046047|   -4.369089|   -4.306463|   -5.639260|
|          32|   -6.053555|   -4.357558|   -4.304999|   -5.634137|
|          33|   -6.060690|   -4.346237|   -4.304037|   -5.629073|
|          34|   -6.067396|   -4.335097|   -4.303270|   -5.624061|
|          35|   -6.073642|   -4.324161|   -4.302404|   -5.619114|
|          36|   -6.079408|   -4.313479|   -4.301045|   -5.614278|
|          37|   -6.084707|   -4.303064|   -4.298119|   -5.609609|
|          38|   -6.089632|   -4.292899|   -4.292725|   -5.605158|
|          39|   -6.094320|   -4.283011|   -4.286990|   -5.600953|
|          40|   -6.098704|   -4.273408|   -4.281679|   -5.596975|
|          41|   -6.102690|   -4.264062|   -4.277201|   -5.593168|
|          42|   -6.106283|   -4.254896|   -4.273872|   -5.589502|
|          43|   -6.109584|   -4.245724|   -4.270780|   -5.585981|
|          44|   -6.112718|   -4.236413|   -4.268688|   -5.582696|
|          45|   -6.115584|   -4.226939|   -4.266979|   -5.579709|
|          46|   -6.118175|   -4.217535|   -4.266663|   -5.576995|
|          47|   -6.120399|   -4.208627|   -4.267574|   -5.574489|
|          48|   -6.122272|   -4.200590|   -4.268405|   -5.572099|
|          49|   -6.124019|   -4.193741|   -4.269424|   -5.569777|
|          50|   -6.125687|   -4.188272|   -4.271068|   -5.567481|
|          51|   -6.127131|   -4.184181|   -4.273238|   -5.565244|
|          52|   -6.128418|   -4.181309|   -4.275967|   -5.563122|
|          53|   -6.129531|   -4.179414|   -4.279343|   -5.561192|
|          54|   -6.130434|   -4.178239|   -4.283362|   -5.559454|
|          55|   -6.131032|   -4.177614|   -4.287829|   -5.557804|
|          56|   -6.131229|   -4.177459|   -4.292399|   -5.556025|
|          57|   -6.131047|   -4.177725|   -4.296700|   -5.553856|
|          58|   -6.130604|   -4.178332|   -4.300350|   -5.551081|
|          59|   -6.129624|   -4.179081|   -4.302960|   -5.547607|
|          60|   -6.127627|   -4.179627|   -4.304024|   -5.543457|
|          61|   -6.124318|   -4.179495|   -4.303429|   -5.538701|
|          62|   -6.119587|   -4.178224|   -4.301444|   -5.533405|
|          63|   -6.113438|   -4.175529|   -4.298254|   -5.527638|
|          64|   -6.106017|   -4.171382|   -4.293918|   -5.521477|
|          65|   -6.097494|   -4.166019|   -4.288302|   -5.514982|
|          66|   -6.087877|   -4.159839|   -4.281063|   -5.508172|
|          67|   -6.077032|   -4.153236|   -4.271719|   -5.501005|
|          68|   -6.064768|   -4.146491|   -4.259812|   -5.493357|
|          69|   -6.050793|   -4.139582|   -4.244989|   -5.485045|
|          70|   -6.034919|   -4.132282|   -4.227231|   -5.475851|
|          71|   -6.016952|   -4.124431|   -4.206715|   -5.465693|
|          72|   -5.997746|   -4.116398|   -4.183865|   -5.454744|
|          73|   -5.977003|   -4.108184|   -4.159161|   -5.443890|
|          74|   -5.955323|   -4.100089|   -4.134288|   -5.434724|
|          75|   -5.935401|   -4.092257|   -4.112094|   -5.428845|
|          76|   -5.920233|   -4.084438|   -4.095783|   -5.427183|
|          77|   -5.911495|   -4.076389|   -4.087130|   -5.429564|
|          78|   -5.908560|   -4.068600|   -4.087503|   -5.434744|
|          79|   -5.910099|   -4.061934|   -4.094971|   -5.441142|
|          80|   -5.915385|   -4.057166|   -4.104581|   -5.447702|
|          81|   -5.922428|   -4.054130|   -4.114412|   -5.454278|
|          82|   -5.930465|   -4.051953|   -4.124245|   -5.460801|
|          83|   -5.938458|   -4.049408|   -4.134604|   -5.466963|
|          84|   -5.944657|   -4.045776|   -4.144621|   -5.472469|
|          85|   -5.947865|   -4.041328|   -4.153022|   -5.476592|
|          86|   -5.947107|   -4.034924|   -4.159688|   -5.478608|
|          87|   -5.942106|   -4.026537|   -4.164362|   -5.477872|
|          88|   -5.932906|   -4.017441|   -4.164899|   -5.474056|
|          89|   -5.921051|   -4.007532|   -4.157765|   -5.467079|
|          90|   -5.907779|   -3.997037|   -4.140936|   -5.456959|
|          91|   -5.890539|   -3.986895|   -4.115622|   -5.444787|
|          92|   -5.869361|   -3.978183|   -4.086771|   -5.432358|
|          93|   -5.845817|   -3.971439|   -4.059799|   -5.421813|
|          94|   -5.823517|   -3.966775|   -4.038795|   -5.414543|
|          95|   -5.806868|   -3.963879|   -4.025806|   -5.410772|
|          96|   -5.797124|   -3.962282|   -4.020190|   -5.410170|
|          97|   -5.792716|   -3.961321|   -4.019497|   -5.412253|
|          98|   -5.792921|   -3.960431|   -4.021811|   -5.416384|
|          99|   -5.797086|   -3.959762|   -4.026349|   -5.422085|
|         100|   -5.805102|   -3.959458|   -4.032555|   -5.428783|
|         101|   -5.815972|   -3.959696|   -4.040977|   -5.436062|
|         102|   -5.828967|   -3.960891|   -4.051573|   -5.443199|
|         103|   -5.842897|   -3.963650|   -4.063508|   -5.449870|
|         104|   -5.858307|   -3.967774|   -4.075670|   -5.456100|
|         105|   -5.873407|   -3.972945|   -4.087889|   -5.461499|
|         106|   -5.888229|   -3.979156|   -4.100043|   -5.465447|
|         107|   -5.901997|   -3.986268|   -4.110893|   -5.467147|
|         108|   -5.913246|   -3.994277|   -4.118478|   -5.466245|
|         109|   -5.922093|   -4.002580|   -4.121936|   -5.462585|
|         110|   -5.925753|   -4.010735|   -4.122401|   -5.456772|
|         111|   -5.922787|   -4.018240|   -4.121053|   -5.449555|
|         112|   -5.912060|   -4.024697|   -4.118645|   -5.442715|
|         113|   -5.902510|   -4.029506|   -4.115671|   -5.436165|
|         114|   -5.892019|   -4.032056|   -4.113469|   -5.430284|
|         115|   -5.881055|   -4.033255|   -4.112076|   -5.425338|
|         116|   -5.871586|   -4.033881|   -4.112222|   -5.421623|
|         117|   -5.863801|   -4.034460|   -4.114207|   -5.419185|
|         118|   -5.857370|   -4.035585|   -4.117628|   -5.418360|
|         119|   -5.853452|   -4.037817|   -4.122261|   -5.419165|
|         120|   -5.851303|   -4.041308|   -4.127446|   -5.421651|
|         121|   -5.851379|   -4.045822|   -4.132814|   -5.425674|
|         122|   -5.852852|   -4.051374|   -4.137622|   -5.431192|
|         123|   -5.856158|   -4.057770|   -4.140841|   -5.437923|
|         124|   -5.860774|   -4.064865|   -4.142040|   -5.445352|
|         125|   -5.865355|   -4.072456|   -4.141326|   -5.453066|
|         126|   -5.870040|   -4.080195|   -4.138794|   -5.460915|
|         127|   -5.874453|   -4.087627|   -4.135060|   -5.468731|
|         128|   -5.878380|   -4.094573|   -4.130249|   -5.476277|
|         129|   -5.882169|   -4.100800|   -4.124946|   -5.483422|
|         130|   -5.885357|   -4.106334|   -4.118324|   -5.490385|
|         131|   -5.892436|   -4.110400|   -4.111526|   -5.496343|
|         132|   -5.900123|   -4.113944|   -4.105837|   -5.501241|
|         133|   -5.907352|   -4.117142|   -4.101322|   -5.505235|
|         134|   -5.913493|   -4.119886|   -4.098085|   -5.508492|
|         135|   -5.918869|   -4.122405|   -4.096131|   -5.511183|
|         136|   -5.923520|   -4.124697|   -4.095349|   -5.513401|
|         137|   -5.927674|   -4.126770|   -4.095608|   -5.515364|
|         138|   -5.931161|   -4.128565|   -4.096677|   -5.517087|
|         139|   -5.934527|   -4.130015|   -4.098258|   -5.518693|
|         140|   -5.937697|   -4.131204|   -4.100055|   -5.520030|
|         141|   -5.940784|   -4.132281|   -4.101932|   -5.521109|
|         142|   -5.943472|   -4.133264|   -4.103619|   -5.521916|
|         143|   -5.945358|   -4.134123|   -4.105290|   -5.522571|
|         144|   -5.946816|   -4.134945|   -4.107003|   -5.523105|
|         145|   -5.947621|   -4.135578|   -4.108494|   -5.523494|
|         146|   -5.948430|   -4.136457|   -4.109488|   -5.523795|
|         147|   -5.949504|   -4.137644|   -4.110070|   -5.524013|
|         148|   -5.950685|   -4.138877|   -4.110259|   -5.524179|
|         149|   -5.951699|   -4.140221|   -4.110065|   -5.524375|
|         150|   -5.953365|   -4.141672|   -4.109530|   -5.524742|
|         151|   -5.955872|   -4.143397|   -4.108823|   -5.525300|
|         152|   -5.958530|   -4.145458|   -4.108328|   -5.525934|
|         153|   -5.961939|   -4.147690|   -4.108062|   -5.526453|
|         154|   -5.965823|   -4.149853|   -4.107578|   -5.526803|
|         155|   -5.969779|   -4.151922|   -4.106832|   -5.526883|
|         156|   -5.973611|   -4.154111|   -4.106199|   -5.526805|
|         157|   -5.976697|   -4.156367|   -4.105699|   -5.526577|
|         158|   -5.978642|   -4.158509|   -4.105348|   -5.526247|
|         159|   -5.980144|   -4.160345|   -4.105321|   -5.525816|
|         160|   -5.981833|   -4.162178|   -4.105464|   -5.525288|
|         161|   -5.983508|   -4.164128|   -4.105937|   -5.524535|
|         162|   -5.985250|   -4.165887|   -4.106532|   -5.523640|
|         163|   -5.986812|   -4.167422|   -4.107364|   -5.522625|
|         164|   -5.987689|   -4.168666|   -4.108222|   -5.521488|
|         165|   -5.988704|   -4.169662|   -4.108950|   -5.520201|
|         166|   -5.989594|   -4.170413|   -4.109631|   -5.518688|
|         167|   -5.989911|   -4.170683|   -4.110015|   -5.516899|
|         168|   -5.989943|   -4.170595|   -4.110048|   -5.514833|
|         169|   -5.989422|   -4.169907|   -4.109659|   -5.512515|
|         170|   -5.988500|   -4.168532|   -4.108678|   -5.510046|
|         171|   -5.987034|   -4.166298|   -4.106886|   -5.507498|
|         172|   -5.985380|   -4.163417|   -4.104641|   -5.504931|
|         173|   -5.983477|   -4.160108|   -4.102098|   -5.502364|
|         174|   -5.982231|   -4.156493|   -4.099451|   -5.499782|
|         175|   -5.981443|   -4.152969|   -4.096792|   -5.497142|
|         176|   -5.981108|   -4.149344|   -4.094069|   -5.494445|
|         177|   -5.981049|   -4.145289|   -4.091367|   -5.491712|
|         178|   -5.980808|   -4.140773|   -4.088518|   -5.488975|
|         179|   -5.981138|   -4.135896|   -4.085685|   -5.486282|
|         180|   -5.981838|   -4.130554|   -4.082855|   -5.483646|
|         181|   -5.982979|   -4.124950|   -4.080005|   -5.481059|
|         182|   -5.984168|   -4.119377|   -4.077045|   -5.478483|
|         183|   -5.985870|   -4.113913|   -4.073694|   -5.475890|
|         184|   -5.987636|   -4.108344|   -4.069998|   -5.473242|
|         185|   -5.989566|   -4.102796|   -4.065988|   -5.470567|
|         186|   -5.991470|   -4.097627|   -4.061714|   -5.467952|
|         187|   -5.993428|   -4.092818|   -4.057128|   -5.465442|
|         188|   -5.995273|   -4.088140|   -4.052373|   -5.463021|
|         189|   -5.997389|   -4.083751|   -4.047537|   -5.460697|
|         190|   -5.999838|   -4.079943|   -4.042768|   -5.458389|
|         191|   -6.002618|   -4.076641|   -4.038166|   -5.456103|
|         192|   -6.005558|   -4.073805|   -4.033866|   -5.453851|
|         193|   -6.008593|   -4.071321|   -4.029936|   -5.451661|
|         194|   -6.011474|   -4.069043|   -4.026371|   -5.449558|
|         195|   -6.014401|   -4.066962|   -4.023129|   -5.447575|
|         196|   -6.017080|   -4.064967|   -4.020244|   -5.445743|
|         197|   -6.019636|   -4.063121|   -4.017791|   -5.444064|
|         198|   -6.021928|   -4.061491|   -4.015853|   -5.442545|
|         199|   -6.024270|   -4.060042|   -4.014361|   -5.441168|
|         200|   -6.026399|   -4.058694|   -4.013216|   -5.439923|
|         201|   -6.028721|   -4.057471|   -4.012301|   -5.438825|
|         202|   -6.030995|   -4.056430|   -4.011520|   -5.437915|
|         203|   -6.033205|   -4.055505|   -4.010775|   -5.437207|
|         204|   -6.035203|   -4.054527|   -4.010101|   -5.436711|
|         205|   -6.037206|   -4.053546|   -4.009628|   -5.436426|
|         206|   -6.039419|   -4.052758|   -4.009449|   -5.436350|
|         207|   -6.041831|   -4.052132|   -4.009498|   -5.436463|
|         208|   -6.044212|   -4.051649|   -4.009638|   -5.436780|
|         209|   -6.046776|   -4.051344|   -4.009798|   -5.437291|
|         210|   -6.049199|   -4.051078|   -4.009931|   -5.437985|
|         211|   -6.051758|   -4.050777|   -4.009984|   -5.438867|
|         212|   -6.054231|   -4.050342|   -4.010038|   -5.439933|
|         213|   -6.056865|   -4.049758|   -4.010196|   -5.441209|
|         214|   -6.059710|   -4.049035|   -4.010551|   -5.442698|
|         215|   -6.062830|   -4.048154|   -4.011084|   -5.444404|
|         216|   -6.066011|   -4.047124|   -4.011803|   -5.446314|
|         217|   -6.069559|   -4.045999|   -4.012672|   -5.448373|
|         218|   -6.073723|   -4.044760|   -4.013695|   -5.450581|
|         219|   -6.078552|   -4.043449|   -4.014834|   -5.452939|
|         220|   -6.083856|   -4.042126|   -4.016086|   -5.455456|
|         221|   -6.089631|   -4.040730|   -4.017397|   -5.458106|
|         222|   -6.095880|   -4.039112|   -4.018753|   -5.460874|
|         223|   -6.102514|   -4.037276|   -4.020269|   -5.463755|
|         224|   -6.109583|   -4.035325|   -4.022072|   -5.466745|
|         225|   -6.116926|   -4.033380|   -4.024199|   -5.469830|
|         226|   -6.124590|   -4.031413|   -4.026656|   -5.473005|
|         227|   -6.132482|   -4.029420|   -4.029476|   -5.476269|
|         228|   -6.140375|   -4.027362|   -4.032699|   -5.479627|
|         229|   -6.148293|   -4.025283|   -4.036318|   -5.483077|
|         230|   -6.156364|   -4.023206|   -4.040280|   -5.486612|
|         231|   -6.164445|   -4.021169|   -4.044569|   -5.490236|
|         232|   -6.172621|   -4.019226|   -4.049111|   -5.493938|
|         233|   -6.180786|   -4.017304|   -4.053946|   -5.497726|
|         234|   -6.188994|   -4.015431|   -4.059021|   -5.501589|
|         235|   -6.197837|   -4.013642|   -4.064338|   -5.505536|
|         236|   -6.206821|   -4.012005|   -4.069856|   -5.509534|
|         237|   -6.215983|   -4.010521|   -4.075513|   -5.513577|
|         238|   -6.225774|   -4.009234|   -4.081295|   -5.517678|
|         239|   -6.235829|   -4.008134|   -4.087149|   -5.521813|
|         240|   -6.245845|   -4.007137|   -4.092959|   -5.525967|
|         241|   -6.256003|   -4.006228|   -4.098686|   -5.530160|
|         242|   -6.266157|   -4.005390|   -4.104309|   -5.534383|
|         243|   -6.276111|   -4.004573|   -4.109741|   -5.538614|
|         244|   -6.285335|   -4.003736|   -4.114981|   -5.542867|
|         245|   -6.294122|   -4.002907|   -4.119925|   -5.547125|
|         246|   -6.302304|   -4.002086|   -4.124564|   -5.551378|
|         247|   -6.309481|   -4.001272|   -4.128873|   -5.555617|
|         248|   -6.315707|   -4.000452|   -4.132806|   -5.559841|
|         249|   -6.320934|   -3.999603|   -4.136219|   -5.564053|
|         250|   -6.325567|   -3.998729|   -4.139095|   -5.568237|
|         251|   -6.329622|   -3.997839|   -4.141601|   -5.572390|
|         252|   -6.332999|   -3.996935|   -4.143766|   -5.576520|
|         253|   -6.335880|   -3.995989|   -4.145631|   -5.580644|
|         254|   -6.338429|   -3.994950|   -4.147178|   -5.584751|
|         255|   -6.340628|   -3.993896|   -4.148462|   -5.588856|
|         256|   -6.343398|   -3.992772|   -4.149604|   -5.592975|
|         257|   -6.345881|   -3.991676|   -4.150673|   -5.597054|
|         258|   -6.348998|   -3.990485|   -4.151756|   -5.601157|
|         259|   -6.352009|   -3.989302|   -4.152884|   -5.605208|
|         260|   -6.355732|   -3.988095|   -4.154183|   -5.609248|
|         261|   -6.359438|   -3.986865|   -4.155732|   -5.613228|
|         262|   -6.363448|   -3.985596|   -4.157518|   -5.617162|
|         263|   -6.367276|   -3.984211|   -4.159532|   -5.621032|
|         264|   -6.371013|   -3.982736|   -4.161667|   -5.624829|
|         265|   -6.373960|   -3.981114|   -4.163853|   -5.628546|
|         266|   -6.376775|   -3.979396|   -4.165931|   -5.632184|
|         267|   -6.378419|   -3.977622|   -4.167785|   -5.635696|
|         268|   -6.379741|   -3.975866|   -4.169316|   -5.639133|
|         269|   -6.379890|   -3.974227|   -4.170425|   -5.642411|
|         270|   -6.379416|   -3.972684|   -4.171040|   -5.645615|
|         271|   -6.378196|   -3.971342|   -4.170969|   -5.648666|
|         272|   -6.376542|   -3.970113|   -4.170443|   -5.651627|
|         273|   -6.374100|   -3.969111|   -4.169457|   -5.654437|
|         274|   -6.371552|   -3.968215|   -4.168184|   -5.657182|
|         275|   -6.368415|   -3.967441|   -4.166639|   -5.659808|
|         276|   -6.365477|   -3.966786|   -4.164826|   -5.662436|
|         277|   -6.363272|   -3.966345|   -4.162928|   -5.665013|
|         278|   -6.361670|   -3.966243|   -4.160928|   -5.667583|
|         279|   -6.360654|   -3.966434|   -4.159060|   -5.670150|
|         280|   -6.361037|   -3.966955|   -4.157400|   -5.672766|
|         281|   -6.361712|   -3.967759|   -4.156136|   -5.675341|
|         282|   -6.363575|   -3.968768|   -4.155388|   -5.678005|
|         283|   -6.365465|   -3.969996|   -4.155232|   -5.680670|
|         284|   -6.367488|   -3.971397|   -4.155777|   -5.683407|
|         285|   -6.369724|   -3.972988|   -4.157018|   -5.686250|
|         286|   -6.371525|   -3.974717|   -4.158943|   -5.689152|
|         287|   -6.372612|   -3.976503|   -4.161516|   -5.692139|
|         288|   -6.373207|   -3.978322|   -4.164697|   -5.695237|
|         289|   -6.373116|   -3.980138|   -4.168437|   -5.698415|
|         290|   -6.371939|   -3.981894|   -4.172625|   -5.701657|
|         291|   -6.369594|   -3.983511|   -4.177066|   -5.704940|
|         292|   -6.366178|   -3.984906|   -4.181451|   -5.708220|
|         293|   -6.361651|   -3.986004|   -4.185369|   -5.711460|
|         294|   -6.356027|   -3.986722|   -4.188391|   -5.714592|
|         295|   -6.349618|   -3.987011|   -4.190138|   -5.717597|
|         296|   -6.342420|   -3.986892|   -4.190207|   -5.720415|
|         297|   -6.334193|   -3.986367|   -4.188308|   -5.722957|
|         298|   -6.325479|   -3.985489|   -4.184409|   -5.725233|
|         299|   -6.316719|   -3.984428|   -4.178579|   -5.727214|
|         300|   -6.307696|   -3.983296|   -4.171118|   -5.728844|
|         301|   -6.298331|   -3.982203|   -4.162318|   -5.730111|
|         302|   -6.288800|   -3.981282|   -4.152529|   -5.731046|
|         303|   -6.279349|   -3.980712|   -4.142008|   -5.731703|
|         304|   -6.270358|   -3.980635|   -4.131103|   -5.732104|
|         305|   -6.261688|   -3.981094|   -4.120210|   -5.732275|
|         306|   -6.253331|   -3.982144|   -4.109618|   -5.732271|
|         307|   -6.245297|   -3.983835|   -4.099600|   -5.732137|
|         308|   -6.237358|   -3.986223|   -4.090723|   -5.731900|
|         309|   -6.229345|   -3.989310|   -4.083186|   -5.731607|
|         310|   -6.221314|   -3.993065|   -4.077067|   -5.731313|
|         311|   -6.213185|   -3.997427|   -4.072399|   -5.731042|
|         312|   -6.204922|   -4.002303|   -4.069148|   -5.730769|
|         313|   -6.196350|   -4.007574|   -4.067186|   -5.730549|
|         314|   -6.187567|   -4.013186|   -4.066361|   -5.730369|
|         315|   -6.178372|   -4.019128|   -4.066543|   -5.730298|
|         316|   -6.168727|   -4.025433|   -4.067663|   -5.730397|
|         317|   -6.158672|   -4.032117|   -4.069737|   -5.730819|
|         318|   -6.148363|   -4.039201|   -4.072916|   -5.731684|
|         319|   -6.137929|   -4.046712|   -4.077276|   -5.733151|
|         320|   -6.127682|   -4.054664|   -4.082766|   -5.735325|
|         321|   -6.117868|   -4.062984|   -4.089140|   -5.738312|
|         322|   -6.109622|   -4.071667|   -4.095470|   -5.742257|
|         323|   -6.103771|   -4.080625|   -4.101269|   -5.746981|
|         324|   -6.099453|   -4.089700|   -4.107172|   -5.752211|
|         325|   -6.095490|   -4.098575|   -4.113391|   -5.757899|
|         326|   -6.091392|   -4.107061|   -4.119800|   -5.763997|
|         327|   -6.087019|   -4.115010|   -4.126243|   -5.770435|
|         328|   -6.082519|   -4.122284|   -4.132584|   -5.777105|
|         329|   -6.078074|   -4.128826|   -4.138639|   -5.783891|
|         330|   -6.073672|   -4.134611|   -4.144176|   -5.790666|
|         331|   -6.069148|   -4.139695|   -4.149028|   -5.797327|
|         332|   -6.064438|   -4.144203|   -4.153042|   -5.803801|
|         333|   -6.059490|   -4.148305|   -4.156076|   -5.810039|
|         334|   -6.054356|   -4.152215|   -4.158162|   -5.816027|
|         335|   -6.049111|   -4.156096|   -4.159477|   -5.821768|
|         336|   -6.043857|   -4.160122|   -4.160224|   -5.827283|
|         337|   -6.038730|   -4.164400|   -4.160633|   -5.832591|
|         338|   -6.033805|   -4.169009|   -4.160932|   -5.837723|
|         339|   -6.029122|   -4.174001|   -4.161295|   -5.842731|
|         340|   -6.024778|   -4.179422|   -4.161933|   -5.847669|
|         341|   -6.020909|   -4.185320|   -4.162939|   -5.852538|
|         342|   -6.017605|   -4.191673|   -4.164532|   -5.857316|
|         343|   -6.014884|   -4.198390|   -4.166930|   -5.861956|
|         344|   -6.012698|   -4.205385|   -4.170071|   -5.866386|
|         345|   -6.010828|   -4.212503|   -4.173868|   -5.870495|
|         346|   -6.009095|   -4.219542|   -4.178091|   -5.874170|
|         347|   -6.007513|   -4.226352|   -4.179649|   -5.877369|
|         348|   -6.005776|   -4.232841|   -4.180130|   -5.879889|
|         349|   -6.004207|   -4.238956|   -4.180209|   -5.881604|
|         350|   -6.002772|   -4.244672|   -4.179982|   -5.881573|
|         351|   -6.001337|   -4.249942|   -4.179535|   -5.879814|
|         352|   -5.999753|   -4.254699|   -4.178840|   -5.876764|
|         353|   -5.998037|   -4.258927|   -4.177936|   -5.872821|
|         354|   -5.996235|   -4.262664|   -4.176877|   -5.869002|
|         355|   -5.994396|   -4.265919|   -4.175683|   -5.865009|
|         356|   -5.992534|   -4.268680|   -4.174388|   -5.860784|
|         357|   -5.990693|   -4.271060|   -4.173029|   -5.856333|
|         358|   -5.988919|   -4.273250|   -4.171705|   -5.851779|
|         359|   -5.987241|   -4.275346|   -4.170514|   -5.847234|
|         360|   -5.985674|   -4.277392|   -4.169536|   -5.842848|
|         361|   -5.984222|   -4.279380|   -4.168822|   -5.838703|
|         362|   -5.982874|   -4.281257|   -4.168347|   -5.834834|
|         363|   -5.981588|   -4.282917|   -4.168059|   -5.831279|
|         364|   -5.980336|   -4.284319|   -4.167884|   -5.828049|
|         365|   -5.979099|   -4.285475|   -4.167761|   -5.825118|
|         366|   -5.977873|   -4.286409|   -4.167663|   -5.822477|
|         367|   -5.976660|   -4.287158|   -4.167550|   -5.820127|
|         368|   -5.975488|   -4.287755|   -4.167441|   -5.818069|
|         369|   -5.974323|   -4.288227|   -4.167295|   -5.816319|
|         370|   -5.973141|   -4.288624|   -4.167045|   -5.814917|
|         371|   -5.971946|   -4.288993|   -4.166656|   -5.813950|
|         372|   -5.970901|   -4.289361|   -4.166352|   -5.813482|
|         373|   -5.970049|   -4.289770|   -4.166123|   -5.813564|
|         374|   -5.969423|   -4.290281|   -4.165939|   -5.814246|
|         375|   -5.969114|   -4.290978|   -4.165887|   -5.815456|
|         376|   -5.969143|   -4.291895|   -4.166020|   -5.817191|
|         377|   -5.969564|   -4.293031|   -4.166460|   -5.819393|
|         378|   -5.970350|   -4.294336|   -4.167244|   -5.821984|
|         379|   -5.971461|   -4.295706|   -4.168386|   -5.824847|
|         380|   -5.972852|   -4.297039|   -4.169856|   -5.827917|
|         381|   -5.974498|   -4.298190|   -4.171671|   -5.831090|
|         382|   -5.976381|   -4.299033|   -4.173848|   -5.834301|
|         383|   -5.978473|   -4.299489|   -4.176374|   -5.837464|
|         384|   -5.980682|   -4.299490|   -4.179115|   -5.840530|
|         385|   -5.983085|   -4.299000|   -4.182195|   -5.843465|
|         386|   -5.985618|   -4.297976|   -4.185496|   -5.846277|
|         387|   -5.988255|   -4.296397|   -4.188947|   -5.848989|
|         388|   -5.991038|   -4.294286|   -4.192600|   -5.851574|
|         389|   -5.993837|   -4.291724|   -4.196206|   -5.853979|
|         390|   -5.996731|   -4.288754|   -4.199812|   -5.856142|
|         391|   -5.999726|   -4.285433|   -4.203384|   -5.858022|
|         392|   -6.002790|   -4.281861|   -4.206888|   -5.859547|
|         393|   -6.005937|   -4.278180|   -4.210445|   -5.860649|
|         394|   -6.009093|   -4.274476|   -4.213947|   -5.861250|
|         395|   -6.012254|   -4.270887|   -4.217448|   -5.861297|
|         396|   -6.015385|   -4.267529|   -4.220983|   -5.860752|
|         397|   -6.018427|   -4.264526|   -4.224475|   -5.859605|
|         398|   -6.021384|   -4.261923|   -4.227866|   -5.857894|
|         399|   -6.024276|   -4.259696|   -4.231105|   -5.855739|
|         400|   -6.027140|   -4.257842|   -4.234103|   -5.853332|
|         401|   -6.030024|   -4.256214|   -4.233249|   -5.850897|
|         402|   -6.032423|   -4.254728|   -4.230163|   -5.848436|
|         403|   -6.034872|   -4.253027|   -4.226986|   -5.845993|
|         404|   -6.037614|   -4.250906|   -4.224741|   -5.843559|
|         405|   -6.040633|   -4.248313|   -4.223581|   -5.841113|
|         406|   -6.043822|   -4.245461|   -4.223668|   -5.838641|
|         407|   -6.047043|   -4.242634|   -4.224447|   -5.836125|
|         408|   -6.050232|   -4.240030|   -4.225700|   -5.833550|
|         409|   -6.053314|   -4.237601|   -4.227264|   -5.830831|
|         410|   -6.056289|   -4.235394|   -4.229629|   -5.827988|
|         411|   -6.059125|   -4.233426|   -4.232315|   -5.824999|
|         412|   -6.061922|   -4.231809|   -4.236091|   -5.821875|
|         413|   -6.064766|   -4.230383|   -4.240163|   -5.818578|
|         414|   -6.067776|   -4.229168|   -4.245364|   -5.814942|
|         415|   -6.070781|   -4.227780|   -4.250628|   -5.811151|
|         416|   -6.073847|   -4.226125|   -4.256327|   -5.807218|
|         417|   -6.077191|   -4.224106|   -4.262382|   -5.802942|
|         418|   -6.080268|   -4.221611|   -4.268478|   -5.798368|
|         419|   -6.083175|   -4.218623|   -4.274362|   -5.793588|
|         420|   -6.085701|   -4.215181|   -4.279517|   -5.788546|
|         421|   -6.088080|   -4.211205|   -4.283276|   -5.783352|
|         422|   -6.090158|   -4.206812|   -4.286631|   -5.777954|
|         423|   -6.092027|   -4.202042|   -4.289748|   -5.772409|
|         424|   -6.093558|   -4.196915|   -4.292591|   -5.766753|
|         425|   -6.094707|   -4.191397|   -4.295014|   -5.761052|
|         426|   -6.095429|   -4.185425|   -4.296753|   -5.755496|
|         427|   -6.095906|   -4.178956|   -4.297303|   -5.750217|
|         428|   -6.096331|   -4.172119|   -4.297262|   -5.745294|
|         429|   -6.096678|   -4.165005|   -4.296802|   -5.740848|
|         430|   -6.097039|   -4.157677|   -4.295868|   -5.736899|
|         431|   -6.097413|   -4.150214|   -4.294356|   -5.733421|
|         432|   -6.097758|   -4.142713|   -4.292207|   -5.730372|
|         433|   -6.098301|   -4.135265|   -4.289353|   -5.727609|
|         434|   -6.098891|   -4.127909|   -4.285747|   -5.724978|
|         435|   -6.099499|   -4.120676|   -4.281203|   -5.722330|
|         436|   -6.100121|   -4.113578|   -4.275243|   -5.719605|
|         437|   -6.101249|   -4.106762|   -4.268407|   -5.716578|
|         438|   -6.102394|   -4.100293|   -4.261002|   -5.713225|
|         439|   -6.103434|   -4.094201|   -4.253115|   -5.709482|
|         440|   -6.104221|   -4.088501|   -4.244868|   -5.705432|
|         441|   -6.104747|   -4.083218|   -4.236419|   -5.701204|
|         442|   -6.104925|   -4.078342|   -4.227815|   -5.696938|
|         443|   -6.105035|   -4.073791|   -4.219042|   -5.692723|
|         444|   -6.105213|   -4.069568|   -4.210128|   -5.688836|
|         445|   -6.105984|   -4.065749|   -4.201412|   -5.685332|
|         446|   -6.107002|   -4.062381|   -4.193305|   -5.682377|
|         447|   -6.108553|   -4.059360|   -4.186048|   -5.680005|
|         448|   -6.110800|   -4.056592|   -4.179599|   -5.678158|
|         449|   -6.113609|   -4.053881|   -4.173898|   -5.676785|
|         450|   -6.116799|   -4.051185|   -4.168778|   -5.675888|
|         451|   -6.120365|   -4.048431|   -4.163864|   -5.675525|
|         452|   -6.124720|   -4.045669|   -4.159457|   -5.675493|
|         453|   -6.128609|   -4.042897|   -4.155651|   -5.675746|
|         454|   -6.131718|   -4.040025|   -4.152532|   -5.676290|
|         455|   -6.134166|   -4.037072|   -4.150165|   -5.677163|
|         456|   -6.136296|   -4.034155|   -4.148843|   -5.678462|
|         457|   -6.139152|   -4.031538|   -4.149645|   -5.680067|
|         458|   -6.143935|   -4.029527|   -4.153158|   -5.681970|
|         459|   -6.152558|   -4.028131|   -4.159318|   -5.683946|
|         460|   -6.163943|   -4.028311|   -4.168240|   -5.685778|
|         461|   -6.178479|   -4.030154|   -4.179210|   -5.687380|
|         462|   -6.195235|   -4.032579|   -4.190588|   -5.688641|
|         463|   -6.211162|   -4.034423|   -4.200778|   -5.689504|
|         464|   -6.223991|   -4.035622|   -4.209403|   -5.690001|
|         465|   -6.234509|   -4.036384|   -4.216291|   -5.690170|
|         466|   -6.243619|   -4.036805|   -4.221599|   -5.690010|
|         467|   -6.251643|   -4.037071|   -4.225916|   -5.689492|
|         468|   -6.258132|   -4.037299|   -4.229804|   -5.688613|
|         469|   -6.263245|   -4.037529|   -4.233678|   -5.687385|
|         470|   -6.267567|   -4.037839|   -4.237825|   -5.685847|
|         471|   -6.271555|   -4.038240|   -4.242476|   -5.684013|
|         472|   -6.275076|   -4.038699|   -4.247498|   -5.681928|
|         473|   -6.278078|   -4.039112|   -4.252568|   -5.679646|
|         474|   -6.280557|   -4.039385|   -4.257368|   -5.677235|
|         475|   -6.282326|   -4.039470|   -4.261624|   -5.674781|
|         476|   -6.283140|   -4.039343|   -4.265190|   -5.672273|
|         477|   -6.282773|   -4.039005|   -4.268068|   -5.669652|
|         478|   -6.281166|   -4.038438|   -4.270058|   -5.666845|
|         479|   -6.278554|   -4.037572|   -4.270979|   -5.663933|
|         480|   -6.275289|   -4.036435|   -4.270922|   -5.660977|
|         481|   -6.270848|   -4.035018|   -4.269958|   -5.658275|
|         482|   -6.265151|   -4.033272|   -4.268151|   -5.655996|
|         483|   -6.259180|   -4.031297|   -4.265847|   -5.654094|
|         484|   -6.253168|   -4.029423|   -4.263125|   -5.652467|
|         485|   -6.247622|   -4.028065|   -4.259092|   -5.651076|
|         486|   -6.240480|   -4.027240|   -4.254561|   -5.649915|
|         487|   -6.233741|   -4.026354|   -4.253173|   -5.649026|
|         488|   -6.228580|   -4.025333|   -4.254067|   -5.648611|
|         489|   -6.225714|   -4.025058|   -4.255928|   -5.648706|
|         490|   -6.226087|   -4.026375|   -4.258416|   -5.649238|
|         491|   -6.226331|   -4.028809|   -4.261313|   -5.650256|
|         492|   -6.226992|   -4.031167|   -4.263959|   -5.651643|
|         493|   -6.227302|   -4.033562|   -4.265938|   -5.653187|
|         494|   -6.226005|   -4.036352|   -4.267399|   -5.654732|
|         495|   -6.222974|   -4.039484|   -4.267818|   -5.656285|
|         496|   -6.218161|   -4.042657|   -4.267354|   -5.658008|
|         497|   -6.212403|   -4.045565|   -4.266016|   -5.660002|
|         498|   -6.206999|   -4.048282|   -4.263845|   -5.662168|
|         499|   -6.201988|   -4.051029|   -4.261223|   -5.664257|
|         500|   -6.197015|   -4.053914|   -4.258811|   -5.666028|
+-----------------------------------------------------------------------+
|        File Writing Summary       |              Filename             |
+-----------------------------------------------------------------------+
|SU2 restart                        |restart_venturi_mixturedensity_30kW_fine_test.dat|
|                                   |                     (1185.87 MB/s)|
|Paraview                           |flow_venturi_mixturedensity_30kW_fine_test_00000500.vtu|
|                                   |                     (7.29903 MB/s)|
|Paraview surface                   |surface_flow_venturi_mixturedensity_30kW_fine_test.vtu|
|                                   |                     (1.51739 MB/s)|
+-----------------------------------------------------------------------+
+----------------------------------------------------------------+
|  Inner_Iter|      rms[P]|      rms[U]|      rms[V]|      rms[c]|
+----------------------------------------------------------------+
|         501|   -6.191928|   -4.056889|   -4.256172|   -5.667445|
|         502|   -6.187589|   -4.059739|   -4.251975|   -5.668625|
|         503|   -6.184390|   -4.062266|   -4.247194|   -5.669695|
|         504|   -6.181545|   -4.064251|   -4.242353|   -5.670804|
|         505|   -6.178962|   -4.065912|   -4.237634|   -5.671987|
|         506|   -6.177120|   -4.067555|   -4.233027|   -5.673220|
|         507|   -6.176193|   -4.069467|   -4.228836|   -5.674486|
|         508|   -6.175700|   -4.071848|   -4.225310|   -5.675809|
|         509|   -6.175007|   -4.074773|   -4.222232|   -5.677219|
|         510|   -6.173766|   -4.078294|   -4.219197|   -5.678705|
|         511|   -6.171839|   -4.082415|   -4.215889|   -5.680206|
|         512|   -6.169293|   -4.087046|   -4.212109|   -5.681659|
|         513|   -6.166278|   -4.092041|   -4.207815|   -5.683030|
|         514|   -6.162959|   -4.097231|   -4.203051|   -5.684316|
|         515|   -6.159621|   -4.102423|   -4.197907|   -5.685521|
|         516|   -6.156429|   -4.107435|   -4.192589|   -5.686660|
|         517|   -6.153526|   -4.112109|   -4.187351|   -5.687745|
|         518|   -6.151084|   -4.116351|   -4.182397|   -5.688781|
|         519|   -6.149147|   -4.120103|   -4.177856|   -5.689773|
|         520|   -6.147625|   -4.123326|   -4.173771|   -5.690727|
|         521|   -6.146353|   -4.125966|   -4.170169|   -5.691647|
|         522|   -6.145186|   -4.128002|   -4.167035|   -5.692541|
|         523|   -6.143919|   -4.129442|   -4.164367|   -5.693418|
|         524|   -6.142373|   -4.130327|   -4.162173|   -5.694290|
|         525|   -6.140402|   -4.130749|   -4.160509|   -5.695173|
|         526|   -6.137894|   -4.130865|   -4.159391|   -5.696082|
|         527|   -6.134855|   -4.130862|   -4.158823|   -5.697026|
|         528|   -6.131403|   -4.130886|   -4.158765|   -5.698011|
|         529|   -6.127730|   -4.131003|   -4.159105|   -5.699035|
|         530|   -6.124083|   -4.131199|   -4.159735|   -5.700105|
|         531|   -6.120878|   -4.131348|   -4.160596|   -5.701226|
|         532|   -6.118616|   -4.131507|   -4.161499|   -5.702400|
|         533|   -6.117723|   -4.132289|   -4.162376|   -5.703623|
|         534|   -6.118503|   -4.134756|   -4.163103|   -5.704886|
|         535|   -6.120768|   -4.139844|   -4.163489|   -5.706192|
|         536|   -6.123719|   -4.146836|   -4.163838|   -5.707531|
|         537|   -6.126636|   -4.154724|   -4.164917|   -5.708908|
|         538|   -6.129129|   -4.162911|   -4.166874|   -5.710315|
|         539|   -6.131085|   -4.170614|   -4.169398|   -5.711739|
|         540|   -6.132570|   -4.177087|   -4.172190|   -5.713167|
|         541|   -6.133717|   -4.182127|   -4.175182|   -5.714587|
|         542|   -6.134636|   -4.186146|   -4.177951|   -5.715993|
|         543|   -6.135431|   -4.189649|   -4.180124|   -5.717374|
|         544|   -6.136145|   -4.192944|   -4.181674|   -5.718717|
|         545|   -6.136788|   -4.196174|   -4.182659|   -5.720013|
|         546|   -6.137363|   -4.199387|   -4.183209|   -5.721249|
|         547|   -6.137869|   -4.202653|   -4.183438|   -5.722418|
|         548|   -6.138311|   -4.205957|   -4.183465|   -5.723518|
|         549|   -6.138714|   -4.209265|   -4.183356|   -5.724548|
|         550|   -6.139096|   -4.212535|   -4.183175|   -5.725516|
|         551|   -6.139477|   -4.215731|   -4.182954|   -5.726428|
|         552|   -6.139873|   -4.218813|   -4.182713|   -5.727296|
|         553|   -6.140300|   -4.221743|   -4.182467|   -5.728133|
|         554|   -6.140768|   -4.224478|   -4.182226|   -5.728951|
|         555|   -6.141287|   -4.226977|   -4.182000|   -5.729767|
|         556|   -6.141866|   -4.229206|   -4.181802|   -5.730593|
|         557|   -6.142510|   -4.231142|   -4.181645|   -5.731440|
|         558|   -6.143222|   -4.232772|   -4.181538|   -5.732317|
|         559|   -6.144008|   -4.234087|   -4.181486|   -5.733231|
|         560|   -6.144871|   -4.235079|   -4.181497|   -5.734184|
|         561|   -6.145821|   -4.235750|   -4.181579|   -5.735174|
|         562|   -6.146867|   -4.236105|   -4.181746|   -5.736200|
|         563|   -6.148014|   -4.236156|   -4.182008|   -5.737256|
|         564|   -6.149270|   -4.235927|   -4.182376|   -5.738336|
|         565|   -6.150640|   -4.235446|   -4.182861|   -5.739436|
|         566|   -6.152123|   -4.234738|   -4.183474|   -5.740555|
|         567|   -6.153719|   -4.233829|   -4.184218|   -5.741694|
|         568|   -6.155422|   -4.232737|   -4.185089|   -5.742856|
|         569|   -6.157225|   -4.231473|   -4.186080|   -5.744047|
|         570|   -6.159120|   -4.230044|   -4.187186|   -5.745277|
|         571|   -6.161101|   -4.228456|   -4.188409|   -5.746555|
|         572|   -6.163166|   -4.226712|   -4.189750|   -5.747892|
|         573|   -6.165310|   -4.224815|   -4.191202|   -5.749299|
|         574|   -6.167527|   -4.222770|   -4.192761|   -5.750783|
|         575|   -6.169818|   -4.220578|   -4.194425|   -5.752354|
|         576|   -6.172188|   -4.218242|   -4.196198|   -5.754016|
|         577|   -6.174644|   -4.215768|   -4.198080|   -5.755773|
|         578|   -6.177190|   -4.213166|   -4.200058|   -5.757625|
|         579|   -6.179833|   -4.210450|   -4.202130|   -5.759575|
|         580|   -6.182579|   -4.207640|   -4.204315|   -5.761622|
|         581|   -6.185439|   -4.204753|   -4.206625|   -5.763764|
|         582|   -6.188418|   -4.201805|   -4.209063|   -5.766000|
|         583|   -6.191518|   -4.198806|   -4.211627|   -5.768329|
|         584|   -6.194744|   -4.195761|   -4.214318|   -5.770751|
|         585|   -6.198103|   -4.192677|   -4.217142|   -5.773262|
|         586|   -6.201598|   -4.189558|   -4.220096|   -5.775863|
|         587|   -6.205234|   -4.186410|   -4.223182|   -5.778551|
|         588|   -6.209008|   -4.183239|   -4.226395|   -5.781324|
|         589|   -6.212922|   -4.180052|   -4.229737|   -5.784182|
|         590|   -6.216978|   -4.176855|   -4.233203|   -5.787120|
|         591|   -6.221166|   -4.173658|   -4.236781|   -5.790139|
|         592|   -6.225475|   -4.170467|   -4.240465|   -5.793234|
|         593|   -6.229900|   -4.167288|   -4.244258|   -5.796404|
|         594|   -6.234440|   -4.164129|   -4.248170|   -5.799647|
|         595|   -6.239093|   -4.160999|   -4.252207|   -5.802959|
|         596|   -6.243862|   -4.157907|   -4.256379|   -5.806339|
|         597|   -6.248772|   -4.154850|   -4.260190|   -5.809781|
|         598|   -6.253728|   -4.151831|   -4.263791|   -5.813279|
|         599|   -6.258800|   -4.148859|   -4.267519|   -5.816830|
|         600|   -6.264061|   -4.145940|   -4.271511|   -5.820433|
|         601|   -6.269538|   -4.143072|   -4.275819|   -5.824085|
|         602|   -6.275229|   -4.140254|   -4.280434|   -5.827786|
|         603|   -6.281137|   -4.137488|   -4.285365|   -5.831533|
|         604|   -6.287275|   -4.134779|   -4.290631|   -5.835326|
|         605|   -6.293663|   -4.132136|   -4.296254|   -5.839164|
|         606|   -6.300320|   -4.129567|   -4.302255|   -5.843046|
|         607|   -6.307270|   -4.127076|   -4.308656|   -5.846972|
|         608|   -6.314543|   -4.124665|   -4.315484|   -5.850940|
|         609|   -6.322171|   -4.122335|   -4.322770|   -5.854950|
|         610|   -6.330172|   -4.120085|   -4.330516|   -5.859002|
|         611|   -6.338563|   -4.117918|   -4.338739|   -5.863096|
|         612|   -6.347365|   -4.115840|   -4.347470|   -5.867231|
|         613|   -6.356598|   -4.113856|   -4.356727|   -5.871408|
|         614|   -6.366278|   -4.111970|   -4.366521|   -5.875626|
|         615|   -6.376417|   -4.110184|   -4.376851|   -5.879887|
|         616|   -6.387024|   -4.108501|   -4.387713|   -5.884191|
|         617|   -6.398102|   -4.106924|   -4.399101|   -5.888539|
|         618|   -6.409644|   -4.105457|   -4.410995|   -5.892932|
|         619|   -6.421632|   -4.104107|   -4.423368|   -5.897371|
|         620|   -6.434044|   -4.102884|   -4.436196|   -5.901857|
|         621|   -6.446870|   -4.101796|   -4.449482|   -5.906394|
|         622|   -6.460058|   -4.100850|   -4.463164|   -5.910981|
|         623|   -6.473525|   -4.100054|   -4.477124|   -5.915620|
|         624|   -6.487192|   -4.099409|   -4.491276|   -5.920312|
|         625|   -6.500975|   -4.098916|   -4.505523|   -5.925057|
|         626|   -6.514767|   -4.098572|   -4.519742|   -5.929858|
|         627|   -6.528431|   -4.098375|   -4.533760|   -5.934714|
|         628|   -6.541815|   -4.098321|   -4.547388|   -5.939627|
|         629|   -6.554760|   -4.098408|   -4.560435|   -5.944597|
|         630|   -6.567080|   -4.098632|   -4.572694|   -5.949623|
|         631|   -6.578582|   -4.098989|   -4.583976|   -5.954705|
|         632|   -6.589075|   -4.099472|   -4.594108|   -5.959843|
|         633|   -6.598378|   -4.100074|   -4.602933|   -5.965034|
|         634|   -6.606328|   -4.100785|   -4.610306|   -5.970278|
|         635|   -6.612793|   -4.101596|   -4.616102|   -5.975572|
|         636|   -6.617682|   -4.102499|   -4.620232|   -5.980915|
|         637|   -6.620954|   -4.103487|   -4.622659|   -5.986304|
|         638|   -6.622644|   -4.104552|   -4.623395|   -5.991736|
|         639|   -6.622797|   -4.105692|   -4.622542|   -5.997207|
|         640|   -6.621526|   -4.106902|   -4.620262|   -6.002714|
|         641|   -6.618979|   -4.108178|   -4.616773|   -6.008251|
|         642|   -6.615322|   -4.109514|   -4.612300|   -6.013817|
|         643|   -6.610733|   -4.110903|   -4.607058|   -6.019407|
|         644|   -6.605392|   -4.112338|   -4.601251|   -6.025020|
|         645|   -6.599476|   -4.113811|   -4.595047|   -6.030654|
|         646|   -6.593156|   -4.115315|   -4.588585|   -6.036307|
|         647|   -6.586571|   -4.116846|   -4.581960|   -6.041976|
|         648|   -6.579835|   -4.118399|   -4.575252|   -6.047661|
|         649|   -6.573054|   -4.119975|   -4.568572|   -6.053362|
|         650|   -6.566313|   -4.121576|   -4.562030|   -6.059078|
|         651|   -6.559662|   -4.123211|   -4.555706|   -6.064810|
|         652|   -6.553122|   -4.124885|   -4.549646|   -6.070556|
|         653|   -6.546704|   -4.126607|   -4.543884|   -6.076315|
|         654|   -6.540410|   -4.128379|   -4.538432|   -6.082084|
|         655|   -6.534228|   -4.130206|   -4.533269|   -6.087863|
|         656|   -6.528147|   -4.132093|   -4.528364|   -6.093650|
|         657|   -6.522145|   -4.134045|   -4.523681|   -6.099443|
|         658|   -6.516196|   -4.136068|   -4.519172|   -6.105243|
|         659|   -6.510269|   -4.138169|   -4.514798|   -6.111046|
|         660|   -6.504335|   -4.140354|   -4.510530|   -6.116854|
|         661|   -6.498361|   -4.142624|   -4.506347|   -6.122666|
|         662|   -6.492306|   -4.144980|   -4.502215|   -6.128482|
|         663|   -6.486124|   -4.147420|   -4.498098|   -6.134304|
|         664|   -6.479781|   -4.149939|   -4.493983|   -6.140136|
|         665|   -6.473265|   -4.152537|   -4.489865|   -6.145983|
|         666|   -6.466569|   -4.155214|   -4.485733|   -6.151847|
|         667|   -6.459696|   -4.157974|   -4.481559|   -6.157732|
|         668|   -6.452650|   -4.160825|   -4.477307|   -6.163642|
|         669|   -6.445409|   -4.163771|   -4.472981|   -6.169577|
|         670|   -6.438003|   -4.166815|   -4.468612|   -6.175540|
|         671|   -6.430484|   -4.169960|   -4.464251|   -6.181528|
|         672|   -6.422855|   -4.173204|   -4.459897|   -6.187535|
|         673|   -6.415110|   -4.176547|   -4.455549|   -6.193555|
|         674|   -6.407259|   -4.179989|   -4.451253|   -6.199577|
|         675|   -6.399318|   -4.183532|   -4.447059|   -6.205590|
|         676|   -6.391308|   -4.187175|   -4.442993|   -6.211573|
|         677|   -6.383249|   -4.190914|   -4.439059|   -6.217503|
|         678|   -6.375154|   -4.194743|   -4.435250|   -6.223350|
|         679|   -6.367044|   -4.198658|   -4.431555|   -6.229079|
|         680|   -6.358947|   -4.202651|   -4.427973|   -6.234661|
|         681|   -6.350885|   -4.206718|   -4.424514|   -6.240052|
|         682|   -6.342876|   -4.210846|   -4.421202|   -6.245212|
|         683|   -6.334927|   -4.215017|   -4.418065|   -6.250099|
|         684|   -6.327061|   -4.219219|   -4.415141|   -6.254669|
|         685|   -6.319284|   -4.223433|   -4.412451|   -6.258880|
|         686|   -6.311596|   -4.227654|   -4.409986|   -6.262690|
|         687|   -6.303999|   -4.231888|   -4.407751|   -6.266055|
|         688|   -6.296501|   -4.236133|   -4.405772|   -6.268936|
|         689|   -6.289116|   -4.240389|   -4.404071|   -6.271291|
|         690|   -6.281841|   -4.244626|   -4.402664|   -6.273085|
|         691|   -6.274681|   -4.248806|   -4.401537|   -6.274290|
|         692|   -6.267705|   -4.252894|   -4.400290|   -6.274889|
|         693|   -6.260815|   -4.256900|   -4.399129|   -6.274860|
|         694|   -6.254048|   -4.260834|   -4.398206|   -6.274180|
|         695|   -6.247427|   -4.264694|   -4.397604|   -6.272830|
|         696|   -6.240950|   -4.268472|   -4.397358|   -6.270801|
|         697|   -6.234604|   -4.272160|   -4.397470|   -6.268090|
|         698|   -6.228388|   -4.275743|   -4.397868|   -6.264716|
|         699|   -6.222285|   -4.279210|   -4.398533|   -6.260706|
|         700|   -6.216286|   -4.282552|   -4.399603|   -6.256079|
|         701|   -6.210406|   -4.285775|   -4.401153|   -6.250868|
|         702|   -6.204646|   -4.288891|   -4.403239|   -6.245119|
|         703|   -6.199060|   -4.291921|   -4.405182|   -6.238960|
|         704|   -6.193526|   -4.294905|   -4.407169|   -6.232462|
|         705|   -6.188050|   -4.297869|   -4.409514|   -6.225692|
|         706|   -6.182662|   -4.300870|   -4.412316|   -6.218718|
|         707|   -6.177345|   -4.303979|   -4.415598|   -6.211655|
|         708|   -6.172080|   -4.307277|   -4.419384|   -6.204609|
|         709|   -6.166845|   -4.310847|   -4.423701|   -6.197740|
|         710|   -6.161880|   -4.314689|   -4.424848|   -6.191650|
|         711|   -6.156677|   -4.318921|   -4.423360|   -6.186453|
|         712|   -6.151306|   -4.323542|   -4.421289|   -6.181976|
|         713|   -6.146091|   -4.328477|   -4.419256|   -6.178037|
|         714|   -6.141106|   -4.333677|   -4.417471|   -6.174426|
|         715|   -6.136331|   -4.339078|   -4.415963|   -6.170969|
|         716|   -6.131746|   -4.344595|   -4.414755|   -6.167543|
|         717|   -6.127487|   -4.350061|   -4.410511|   -6.164319|
|         718|   -6.123043|   -4.355504|   -4.404939|   -6.161067|
|         719|   -6.118619|   -4.360850|   -4.399247|   -6.157649|
|         720|   -6.114355|   -4.366079|   -4.393785|   -6.154038|
|         721|   -6.110328|   -4.371237|   -4.388743|   -6.150239|
|         722|   -6.106528|   -4.376363|   -4.384107|   -6.146335|
|         723|   -6.102975|   -4.381498|   -4.379866|   -6.142423|
|         724|   -6.099619|   -4.386637|   -4.375930|   -6.138613|
|         725|   -6.096420|   -4.391777|   -4.372224|   -6.134973|
|         726|   -6.093382|   -4.396935|   -4.368747|   -6.131504|
|         727|   -6.090505|   -4.402135|   -4.365493|   -6.128195|
|         728|   -6.087753|   -4.407384|   -4.362363|   -6.125039|
|         729|   -6.085206|   -4.412704|   -4.359472|   -6.122013|
|         730|   -6.082801|   -4.418069|   -4.356689|   -6.119077|
|         731|   -6.080540|   -4.423450|   -4.354021|   -6.116209|
|         732|   -6.078414|   -4.428786|   -4.351451|   -6.113390|
|         733|   -6.076440|   -4.434040|   -4.349012|   -6.110600|
|         734|   -6.074626|   -4.439160|   -4.346726|   -6.107837|
|         735|   -6.072860|   -4.444051|   -4.344375|   -6.105147|
|         736|   -6.071313|   -4.448729|   -4.342292|   -6.102495|
|         737|   -6.069878|   -4.453149|   -4.340284|   -6.099813|
|         738|   -6.068583|   -4.457290|   -4.338405|   -6.097077|
|         739|   -6.067432|   -4.461114|   -4.336655|   -6.094294|
|         740|   -6.066430|   -4.464577|   -4.335038|   -6.091518|
|         741|   -6.065629|   -4.467642|   -4.333656|   -6.088763|
|         742|   -6.064938|   -4.470231|   -4.332320|   -6.085981|
|         743|   -6.064398|   -4.472300|   -4.331115|   -6.083118|
|         744|   -6.064013|   -4.473801|   -4.330049|   -6.080160|
|         745|   -6.063746|   -4.474713|   -4.329055|   -6.077145|
|         746|   -6.063612|   -4.475077|   -4.328196|   -6.074092|
|         747|   -6.063599|   -4.474957|   -4.327480|   -6.070997|
|         748|   -6.063685|   -4.474412|   -4.326863|   -6.067868|
|         749|   -6.063863|   -4.473472|   -4.326321|   -6.064739|
|         750|   -6.064168|   -4.472149|   -4.325937|   -6.061681|
|         751|   -6.064585|   -4.470444|   -4.325662|   -6.058774|
|         752|   -6.065106|   -4.468388|   -4.325454|   -6.056023|
|         753|   -6.065726|   -4.466066|   -4.325315|   -6.053346|
|         754|   -6.066461|   -4.463587|   -4.325246|   -6.050620|
|         755|   -6.067313|   -4.461023|   -4.325238|   -6.047749|
|         756|   -6.068293|   -4.458428|   -4.325313|   -6.044674|
|         757|   -6.069395|   -4.455888|   -4.325499|   -6.041374|
|         758|   -6.070582|   -4.453424|   -4.325778|   -6.037845|
|         759|   -6.071839|   -4.451064|   -4.326181|   -6.034105|
|         760|   -6.073147|   -4.448826|   -4.326707|   -6.030178|
|         761|   -6.074494|   -4.446783|   -4.327341|   -6.026086|
|         762|   -6.075868|   -4.445025|   -4.328057|   -6.021835|
|         763|   -6.077248|   -4.443590|   -4.328843|   -6.017430|
|         764|   -6.078622|   -4.442484|   -4.329719|   -6.012922|
|         765|   -6.079982|   -4.441645|   -4.330698|   -6.008416|
|         766|   -6.081316|   -4.441028|   -4.331783|   -6.004046|
|         767|   -6.082612|   -4.440611|   -4.332950|   -5.999939|
|         768|   -6.083859|   -4.440381|   -4.334173|   -5.996156|
|         769|   -6.085063|   -4.440329|   -4.335438|   -5.992693|
|         770|   -6.086227|   -4.440454|   -4.336754|   -5.989528|
|         771|   -6.087359|   -4.440736|   -4.338134|   -5.986641|
|         772|   -6.088453|   -4.441144|   -4.339600|   -5.984025|
|         773|   -6.089511|   -4.441670|   -4.341162|   -5.981679|
|         774|   -6.090528|   -4.442263|   -4.342810|   -5.979590|
|         775|   -6.091501|   -4.442890|   -4.344537|   -5.977726|
|         776|   -6.092456|   -4.443490|   -4.346336|   -5.976074|
|         777|   -6.093367|   -4.443990|   -4.348212|   -5.974621|
|         778|   -6.094248|   -4.444348|   -4.350177|   -5.973407|
|         779|   -6.095130|   -4.444544|   -4.352237|   -5.972477|
|         780|   -6.096008|   -4.444550|   -4.354390|   -5.971709|
|         781|   -6.096899|   -4.444329|   -4.356611|   -5.971139|
|         782|   -6.097756|   -4.443838|   -4.358885|   -5.970818|
|         783|   -6.098652|   -4.443036|   -4.361193|   -5.970706|
|         784|   -6.099628|   -4.441913|   -4.363519|   -5.970762|
|         785|   -6.100610|   -4.440415|   -4.365842|   -5.971129|
|         786|   -6.101682|   -4.438488|   -4.368153|   -5.971687|
|         787|   -6.102832|   -4.436118|   -4.370448|   -5.972656|
|         788|   -6.104086|   -4.433323|   -4.372732|   -5.973986|
|         789|   -6.105480|   -4.430041|   -4.375003|   -5.975553|
|         790|   -6.107011|   -4.426287|   -4.377269|   -5.977312|
|         791|   -6.108655|   -4.422069|   -4.379552|   -5.979439|
|         792|   -6.110487|   -4.417406|   -4.381880|   -5.981896|
|         793|   -6.112470|   -4.412316|   -4.384272|   -5.984784|
|         794|   -6.114684|   -4.406848|   -4.386753|   -5.988086|
|         795|   -6.117068|   -4.401025|   -4.389342|   -5.992027|
|         796|   -6.119745|   -4.394872|   -4.392049|   -5.996415|
|         797|   -6.122645|   -4.388489|   -4.394896|   -6.001329|
|         798|   -6.125798|   -4.381899|   -4.397915|   -6.006773|
|         799|   -6.129200|   -4.375166|   -4.401123|   -6.012761|
|         800|   -6.132846|   -4.368356|   -4.404531|   -6.019276|
|         801|   -6.136729|   -4.361514|   -4.408177|   -6.026297|
|         802|   -6.140839|   -4.354705|   -4.412083|   -6.033780|
|         803|   -6.145170|   -4.347977|   -4.416248|   -6.041636|
|         804|   -6.149703|   -4.341377|   -4.420676|   -6.049810|
|         805|   -6.154430|   -4.334942|   -4.425342|   -6.058197|
|         806|   -6.159336|   -4.328689|   -4.430204|   -6.066773|
|         807|   -6.164398|   -4.322642|   -4.435200|   -6.075446|
|         808|   -6.169602|   -4.316806|   -4.440252|   -6.084126|
|         809|   -6.174926|   -4.311200|   -4.445248|   -6.092747|
|         810|   -6.180343|   -4.305826|   -4.450083|   -6.101212|
|         811|   -6.185827|   -4.300673|   -4.454655|   -6.109407|
|         812|   -6.191341|   -4.295747|   -4.458841|   -6.117255|
|         813|   -6.196857|   -4.291048|   -4.462542|   -6.124737|
|         814|   -6.202344|   -4.286588|   -4.465645|   -6.131831|
|         815|   -6.207779|   -4.282379|   -4.468111|   -6.138523|
|         816|   -6.213159|   -4.278438|   -4.469937|   -6.144749|
|         817|   -6.218445|   -4.274779|   -4.471165|   -6.150531|
|         818|   -6.223600|   -4.271405|   -4.471864|   -6.155914|
|         819|   -6.228618|   -4.268324|   -4.472190|   -6.160916|
|         820|   -6.233505|   -4.265590|   -4.472256|   -6.165611|
|         821|   -6.238292|   -4.263161|   -4.472258|   -6.170043|
|         822|   -6.243015|   -4.261028|   -4.472208|   -6.174331|
|         823|   -6.247696|   -4.259168|   -4.471977|   -6.178316|
|         824|   -6.252348|   -4.257559|   -4.471398|   -6.181927|
|         825|   -6.256954|   -4.256151|   -4.470387|   -6.185128|
|         826|   -6.261499|   -4.254888|   -4.468847|   -6.187679|
|         827|   -6.265897|   -4.253725|   -4.466812|   -6.189459|
|         828|   -6.270108|   -4.252624|   -4.464350|   -6.190446|
|         829|   -6.274067|   -4.251563|   -4.461552|   -6.190539|
|         830|   -6.277750|   -4.250551|   -4.458444|   -6.189720|
|         831|   -6.281157|   -4.249587|   -4.455035|   -6.188021|
|         832|   -6.284297|   -4.248711|   -4.451340|   -6.185432|
|         833|   -6.287231|   -4.247950|   -4.447438|   -6.181953|
|         834|   -6.290046|   -4.247329|   -4.443406|   -6.177749|
|         835|   -6.292730|   -4.246821|   -4.439321|   -6.172725|
|         836|   -6.295367|   -4.246414|   -4.435325|   -6.166892|
|         837|   -6.297914|   -4.246118|   -4.431561|   -6.160345|
|         838|   -6.300346|   -4.245935|   -4.428120|   -6.153180|
|         839|   -6.302587|   -4.245860|   -4.425022|   -6.145492|
|         840|   -6.304636|   -4.245879|   -4.422190|   -6.137364|
|         841|   -6.306395|   -4.245968|   -4.419512|   -6.128935|
|         842|   -6.307780|   -4.246143|   -4.416840|   -6.120328|
|         843|   -6.308770|   -4.246345|   -4.414071|   -6.111763|
|         844|   -6.309441|   -4.246558|   -4.411119|   -6.103252|
|         845|   -6.309935|   -4.246673|   -4.407990|   -6.094679|
|         846|   -6.310197|   -4.246630|   -4.404763|   -6.086029|
|         847|   -6.310236|   -4.246380|   -4.401653|   -6.077564|
|         848|   -6.310001|   -4.246008|   -4.398874|   -6.069600|
|         849|   -6.309438|   -4.245635|   -4.396569|   -6.062275|
|         850|   -6.308992|   -4.245405|   -4.394637|   -6.055605|
|         851|   -6.309148|   -4.245446|   -4.392651|   -6.049563|
|         852|   -6.309760|   -4.245645|   -4.390938|   -6.044518|
|         853|   -6.310751|   -4.245782|   -4.390559|   -6.040647|
|         854|   -6.312507|   -4.245739|   -4.391684|   -6.037597|
|         855|   -6.315983|   -4.245545|   -4.393945|   -6.034762|
|         856|   -6.321048|   -4.245555|   -4.396766|   -6.031987|
|         857|   -6.326095|   -4.246049|   -4.399753|   -6.029230|
|         858|   -6.330538|   -4.246885|   -4.402852|   -6.026106|
|         859|   -6.334734|   -4.247653|   -4.405931|   -6.022366|
|         860|   -6.338075|   -4.248125|   -4.408570|   -6.018064|
|         861|   -6.339934|   -4.248358|   -4.410487|   -6.013463|
|         862|   -6.340332|   -4.248473|   -4.411777|   -6.009085|
|         863|   -6.339589|   -4.248493|   -4.412458|   -6.005590|
|         864|   -6.338390|   -4.248370|   -4.412324|   -6.003308|
|         865|   -6.337252|   -4.247997|   -4.411550|   -6.001827|
|         866|   -6.336500|   -4.247424|   -4.410370|   -6.000292|
|         867|   -6.335958|   -4.246919|   -4.409290|   -5.998194|
|         868|   -6.335541|   -4.246789|   -4.408818|   -5.995588|
|         869|   -6.335177|   -4.247276|   -4.408728|   -5.992963|
|         870|   -6.335008|   -4.248092|   -4.408490|   -5.990893|
|         871|   -6.335721|   -4.248910|   -4.408450|   -5.989679|
|         872|   -6.338725|   -4.249614|   -4.409483|   -5.989197|
|         873|   -6.344880|   -4.250227|   -4.412155|   -5.989261|
|         874|   -6.354104|   -4.250823|   -4.416584|   -5.989679|
|         875|   -6.365923|   -4.251496|   -4.422478|   -5.990185|
|         876|   -6.379779|   -4.252276|   -4.429292|   -5.990557|
|         877|   -6.394953|   -4.253177|   -4.436411|   -5.990659|
|         878|   -6.410664|   -4.254206|   -4.442900|   -5.990462|
|         879|   -6.427126|   -4.255316|   -4.448726|   -5.989985|
|         880|   -6.443706|   -4.256451|   -4.454216|   -5.989256|
|         881|   -6.458824|   -4.257559|   -4.459012|   -5.988335|
|         882|   -6.472090|   -4.258567|   -4.463123|   -5.987281|
|         883|   -6.483723|   -4.259422|   -4.466712|   -5.986149|
|         884|   -6.493884|   -4.260102|   -4.469867|   -5.984980|
|         885|   -6.502524|   -4.260625|   -4.472539|   -5.983802|
|         886|   -6.509736|   -4.260997|   -4.474623|   -5.982644|
|         887|   -6.515784|   -4.261292|   -4.476016|   -5.981528|
|         888|   -6.521035|   -4.261580|   -4.476582|   -5.980469|
|         889|   -6.525779|   -4.261943|   -4.476149|   -5.979476|
|         890|   -6.530131|   -4.262588|   -4.474625|   -5.978548|
|         891|   -6.534030|   -4.263528|   -4.472027|   -5.977677|
|         892|   -6.537074|   -4.264710|   -4.468905|   -5.976862|
|         893|   -6.538848|   -4.265918|   -4.465638|   -5.976107|
|         894|   -6.539098|   -4.267023|   -4.462415|   -5.975413|
|         895|   -6.537678|   -4.267929|   -4.459204|   -5.974773|
|         896|   -6.534524|   -4.268561|   -4.455865|   -5.974171|
|         897|   -6.529659|   -4.268844|   -4.452123|   -5.973588|
|         898|   -6.523126|   -4.268708|   -4.447631|   -5.973003|
|         899|   -6.515065|   -4.268109|   -4.442188|   -5.972398|
|         900|   -6.506548|   -4.267045|   -4.435507|   -5.971790|
|         901|   -6.497635|   -4.265650|   -4.427725|   -5.971162|
|         902|   -6.488656|   -4.264014|   -4.419233|   -5.970499|
|         903|   -6.479988|   -4.262275|   -4.410296|   -5.969794|
|         904|   -6.471745|   -4.260596|   -4.401141|   -5.969057|
|         905|   -6.463859|   -4.259110|   -4.391960|   -5.968285|
|         906|   -6.455935|   -4.257825|   -4.382993|   -5.967463|
|         907|   -6.447330|   -4.256698|   -4.374484|   -5.966571|
|         908|   -6.437205|   -4.255531|   -4.366623|   -5.965560|
|         909|   -6.425327|   -4.254085|   -4.359176|   -5.964506|
|         910|   -6.411231|   -4.252317|   -4.352165|   -5.963462|
|         911|   -6.394364|   -4.250167|   -4.346413|   -5.962348|
|         912|   -6.374926|   -4.247708|   -4.342214|   -5.961174|
|         913|   -6.354021|   -4.245470|   -4.339552|   -5.959941|
|         914|   -6.332804|   -4.243971|   -4.338622|   -5.958710|
|         915|   -6.312580|   -4.243597|   -4.339599|   -5.957522|
|         916|   -6.294504|   -4.244506|   -4.342463|   -5.956363|
|         917|   -6.279399|   -4.246574|   -4.346969|   -5.955175|
|         918|   -6.267941|   -4.249526|   -4.352473|   -5.953939|
|         919|   -6.261443|   -4.253269|   -4.358130|   -5.952688|
|         920|   -6.260912|   -4.258817|   -4.362955|   -5.951442|
|         921|   -6.266695|   -4.267447|   -4.366196|   -5.950217|
|         922|   -6.274973|   -4.279684|   -4.367620|   -5.949211|
|         923|   -6.280759|   -4.292884|   -4.370290|   -5.948546|
|         924|   -6.283293|   -4.305000|   -4.376212|   -5.948119|
|         925|   -6.283074|   -4.315074|   -4.384010|   -5.947782|
|         926|   -6.281096|   -4.322862|   -4.392210|   -5.947414|
|         927|   -6.277980|   -4.328979|   -4.400372|   -5.946972|
|         928|   -6.274603|   -4.334322|   -4.407750|   -5.946438|
|         929|   -6.271143|   -4.339348|   -4.413518|   -5.945790|
|         930|   -6.267602|   -4.344146|   -4.417787|   -5.945039|
|         931|   -6.263899|   -4.349025|   -4.420922|   -5.944200|
|         932|   -6.260055|   -4.354002|   -4.423203|   -5.943287|
|         933|   -6.256223|   -4.359092|   -4.424778|   -5.942322|
|         934|   -6.252498|   -4.364318|   -4.425727|   -5.941341|
|         935|   -6.248968|   -4.369692|   -4.426116|   -5.940380|
|         936|   -6.245722|   -4.375167|   -4.426016|   -5.939472|
|         937|   -6.242838|   -4.380651|   -4.425518|   -5.938635|
|         938|   -6.240384|   -4.386034|   -4.424732|   -5.937877|
|         939|   -6.238389|   -4.391220|   -4.423730|   -5.937198|
|         940|   -6.236828|   -4.396126|   -4.422610|   -5.936601|
|         941|   -6.235623|   -4.400682|   -4.421379|   -5.936080|
|         942|   -6.234677|   -4.404863|   -4.420044|   -5.935638|
|         943|   -6.233878|   -4.408635|   -4.418566|   -5.935277|
|         944|   -6.233146|   -4.411970|   -4.416886|   -5.935000|
|         945|   -6.232440|   -4.414866|   -4.414958|   -5.934808|
|         946|   -6.231736|   -4.417332|   -4.412779|   -5.934692|
|         947|   -6.231025|   -4.419395|   -4.410342|   -5.934638|
|         948|   -6.230300|   -4.421096|   -4.407642|   -5.934624|
|         949|   -6.229557|   -4.422491|   -4.404702|   -5.934631|
|         950|   -6.228785|   -4.423647|   -4.401548|   -5.934636|
|         951|   -6.227975|   -4.424621|   -4.398208|   -5.934625|
|         952|   -6.227119|   -4.425477|   -4.394689|   -5.934582|
|         953|   -6.226213|   -4.426288|   -4.390997|   -5.934498|
|         954|   -6.225253|   -4.427078|   -4.387120|   -5.934363|
|         955|   -6.224264|   -4.427848|   -4.383049|   -5.934169|
|         956|   -6.223271|   -4.428590|   -4.378784|   -5.933918|
|         957|   -6.222275|   -4.429308|   -4.374354|   -5.933613|
|         958|   -6.221292|   -4.430035|   -4.369773|   -5.933255|
|         959|   -6.220346|   -4.430779|   -4.365072|   -5.932842|
|         960|   -6.219454|   -4.431538|   -4.360273|   -5.932373|
|         961|   -6.218626|   -4.432318|   -4.355391|   -5.931853|
|         962|   -6.217862|   -4.433131|   -4.350435|   -5.931282|
|         963|   -6.217165|   -4.433963|   -4.345428|   -5.930664|
|         964|   -6.216534|   -4.434798|   -4.340407|   -5.930004|
[...]
|        1210|   -6.104929|   -4.603559|   -4.503005|   -6.155533|
|        1211|   -6.104488|   -4.603818|   -4.501963|   -6.153445|
|        1212|   -6.104083|   -4.604001|   -4.500987|   -6.151554|
|        1213|   -6.103702|   -4.604088|   -4.500067|   -6.149891|
|        1214|   -6.103369|   -4.604103|   -4.499197|   -6.148393|
|        1215|   -6.103071|   -4.604040|   -4.498372|   -6.147070|
|        1216|   -6.102793|   -4.603859|   -4.497581|   -6.145930|
|        1217|   -6.102552|   -4.603605|   -4.496829|   -6.144923|
|        1218|   -6.102379|   -4.603292|   -4.496110|   -6.144018|
|        1219|   -6.102226|   -4.602859|   -4.495420|   -6.143178|
|        1220|   -6.102132|   -4.602339|   -4.494767|   -6.142348|
|        1221|   -6.102095|   -4.601751|   -4.494164|   -6.141526|
|        1222|   -6.102098|   -4.601106|   -4.493596|   -6.140623|
|        1223|   -6.102172|   -4.600417|   -4.493044|   -6.139565|
|        1224|   -6.102291|   -4.599735|   -4.492476|   -6.138394|
|        1225|   -6.102460|   -4.599064|   -4.491859|   -6.137150|
|        1226|   -6.102701|   -4.598431|   -4.491232|   -6.135821|
|        1227|   -6.103033|   -4.597891|   -4.490634|   -6.134422|
|        1228|   -6.103438|   -4.597464|   -4.490145|   -6.132952|
|        1229|   -6.103906|   -4.597104|   -4.489839|   -6.131430|
|        1230|   -6.104437|   -4.596756|   -4.489758|   -6.129789|
|        1231|   -6.105016|   -4.596339|   -4.489894|   -6.128033|
|        1232|   -6.105638|   -4.595811|   -4.490181|   -6.126166|
|        1233|   -6.106299|   -4.595158|   -4.490538|   -6.124205|
|        1234|   -6.106998|   -4.594361|   -4.490918|   -6.122219|
|        1235|   -6.107736|   -4.593439|   -4.491328|   -6.120296|
|        1236|   -6.108520|   -4.592399|   -4.491787|   -6.118481|
|        1237|   -6.109343|   -4.591217|   -4.492335|   -6.116846|
|        1238|   -6.110207|   -4.589856|   -4.492995|   -6.115456|
|        1239|   -6.111113|   -4.588309|   -4.493766|   -6.114386|
|        1240|   -6.112067|   -4.586556|   -4.494633|   -6.113684|
|        1241|   -6.113071|   -4.584581|   -4.495564|   -6.113419|
|        1242|   -6.114136|   -4.582367|   -4.496527|   -6.113618|
|        1243|   -6.115267|   -4.579906|   -4.497506|   -6.114285|
|        1244|   -6.116478|   -4.577204|   -4.498508|   -6.115421|
|        1245|   -6.117774|   -4.574235|   -4.499526|   -6.116998|
|        1246|   -6.119162|   -4.570993|   -4.500567|   -6.118957|
|        1247|   -6.120649|   -4.567485|   -4.501634|   -6.121225|
|        1248|   -6.122235|   -4.563725|   -4.502723|   -6.123678|
|        1249|   -6.123922|   -4.559726|   -4.503828|   -6.126203|
|        1250|   -6.125703|   -4.555493|   -4.504940|   -6.128707|
|        1251|   -6.127568|   -4.551043|   -4.506049|   -6.131115|
|        1252|   -6.129513|   -4.546390|   -4.507149|   -6.133397|
|        1253|   -6.131535|   -4.541556|   -4.508231|   -6.135526|
|        1254|   -6.133628|   -4.536556|   -4.509288|   -6.137518|
|        1255|   -6.135788|   -4.531409|   -4.510312|   -6.139439|
|        1256|   -6.138009|   -4.526138|   -4.511289|   -6.141327|
|        1257|   -6.140283|   -4.520767|   -4.512200|   -6.143219|
|        1258|   -6.142609|   -4.515321|   -4.513026|   -6.145155|
|        1259|   -6.144982|   -4.509820|   -4.513737|   -6.147161|
|        1260|   -6.147394|   -4.504299|   -4.514303|   -6.149270|
|        1261|   -6.149837|   -4.498783|   -4.514702|   -6.151509|
|        1262|   -6.152308|   -4.493294|   -4.514907|   -6.153883|
|        1263|   -6.154802|   -4.487858|   -4.514908|   -6.156387|
|        1264|   -6.157311|   -4.482496|   -4.514685|   -6.158994|
|        1265|   -6.159834|   -4.477229|   -4.514215|   -6.161691|
|        1266|   -6.162369|   -4.472052|   -4.513482|   -6.164501|
|        1267|   -6.164910|   -4.466967|   -4.512451|   -6.167376|
|        1268|   -6.167455|   -4.462003|   -4.511076|   -6.170373|
|        1269|   -6.169987|   -4.457170|   -4.509312|   -6.173446|
|        1270|   -6.172504|   -4.452460|   -4.507163|   -6.176574|
|        1271|   -6.175009|   -4.447834|   -4.504664|   -6.179763|
|        1272|   -6.177502|   -4.443297|   -4.501900|   -6.183042|
|        1273|   -6.179973|   -4.438854|   -4.498928|   -6.186469|
|        1274|   -6.182414|   -4.434515|   -4.495804|   -6.190061|
|        1275|   -6.184829|   -4.430311|   -4.492561|   -6.193841|
|        1276|   -6.187240|   -4.426279|   -4.489244|   -6.197806|
|        1277|   -6.189665|   -4.422461|   -4.485871|   -6.201993|
|        1278|   -6.192102|   -4.418862|   -4.482454|   -6.206424|
|        1279|   -6.194569|   -4.415461|   -4.479015|   -6.211111|
|        1280|   -6.197052|   -4.412239|   -4.475568|   -6.216061|
|        1281|   -6.199530|   -4.409172|   -4.472138|   -6.221302|
|        1282|   -6.202000|   -4.406258|   -4.468755|   -6.226872|
|        1283|   -6.204423|   -4.403476|   -4.465368|   -6.232813|
|        1284|   -6.206800|   -4.400817|   -4.462001|   -6.239190|
|        1285|   -6.209147|   -4.398269|   -4.458700|   -6.246157|
|        1286|   -6.211452|   -4.395808|   -4.455488|   -6.253592|
|        1287|   -6.213766|   -4.393413|   -4.452356|   -6.261385|
|        1288|   -6.216167|   -4.391022|   -4.449130|   -6.269500|
|        1289|   -6.218446|   -4.388603|   -4.446091|   -6.277845|
|        1290|   -6.220803|   -4.386189|   -4.443394|   -6.286343|
|        1291|   -6.223291|   -4.383786|   -4.441045|   -6.294929|
|        1292|   -6.225847|   -4.381400|   -4.439024|   -6.303503|
|        1293|   -6.228409|   -4.379024|   -4.437335|   -6.311975|
|        1294|   -6.230975|   -4.376636|   -4.435897|   -6.320166|
|        1295|   -6.233462|   -4.374207|   -4.434747|   -6.327820|
|        1296|   -6.235892|   -4.371717|   -4.433930|   -6.334649|
|        1297|   -6.238312|   -4.369157|   -4.433414|   -6.340381|
|        1298|   -6.240732|   -4.366507|   -4.433114|   -6.344759|
|        1299|   -6.243230|   -4.363726|   -4.432805|   -6.347575|
|        1300|   -6.245711|   -4.360750|   -4.432440|   -6.348842|
|        1301|   -6.248231|   -4.357550|   -4.431954|   -6.348089|
|        1302|   -6.250776|   -4.354140|   -4.431389|   -6.345052|
|        1303|   -6.253385|   -4.350486|   -4.430706|   -6.339531|
|        1304|   -6.255977|   -4.346633|   -4.430087|   -6.331711|
|        1305|   -6.258548|   -4.342702|   -4.429861|   -6.321781|
|        1306|   -6.261090|   -4.338844|   -4.430429|   -6.310107|
|        1307|   -6.263603|   -4.335271|   -4.431838|   -6.297301|
|        1308|   -6.265862|   -4.332336|   -4.433571|   -6.284463|
|        1309|   -6.267676|   -4.330236|   -4.435247|   -6.272973|
|        1310|   -6.269669|   -4.328945|   -4.436828|   -6.263715|
|        1311|   -6.272218|   -4.328139|   -4.438348|   -6.257165|
|        1312|   -6.275314|   -4.327267|   -4.440385|   -6.253722|
|        1313|   -6.279065|   -4.325964|   -4.444008|   -6.253542|
|        1314|   -6.283484|   -4.324448|   -4.449604|   -6.256227|
|        1315|   -6.288462|   -4.323303|   -4.455734|   -6.260997|
|        1316|   -6.294149|   -4.322876|   -4.461574|   -6.266842|
|        1317|   -6.300349|   -4.323237|   -4.466935|   -6.272499|
|        1318|   -6.306730|   -4.323815|   -4.472156|   -6.277040|
|        1319|   -6.312964|   -4.324110|   -4.477307|   -6.279944|
|        1320|   -6.318581|   -4.324038|   -4.482270|   -6.280551|
|        1321|   -6.323563|   -4.323625|   -4.486345|   -6.278492|
|        1322|   -6.327640|   -4.322833|   -4.489087|   -6.274155|
|        1323|   -6.330255|   -4.321543|   -4.490470|   -6.268743|
|        1324|   -6.331251|   -4.319789|   -4.490306|   -6.263728|
|        1325|   -6.330960|   -4.317770|   -4.488193|   -6.260161|
|        1326|   -6.329818|   -4.315773|   -4.484180|   -6.258245|
|        1327|   -6.328082|   -4.313909|   -4.478926|   -6.257453|
|        1328|   -6.325797|   -4.312005|   -4.473301|   -6.256471|
|        1329|   -6.323204|   -4.310359|   -4.468394|   -6.254888|
|        1330|   -6.321265|   -4.309233|   -4.464820|   -6.252959|
|        1331|   -6.321255|   -4.309026|   -4.462660|   -6.251270|
|        1332|   -6.323349|   -4.309675|   -4.461773|   -6.250554|
|        1333|   -6.327358|   -4.310972|   -4.462383|   -6.251169|
|        1334|   -6.333243|   -4.312606|   -4.464995|   -6.252885|
|        1335|   -6.340830|   -4.314231|   -4.469758|   -6.255075|
|        1336|   -6.349795|   -4.315564|   -4.476320|   -6.257200|
|        1337|   -6.359642|   -4.316511|   -4.483985|   -6.258939|
|        1338|   -6.369763|   -4.317097|   -4.491764|   -6.260097|
|        1339|   -6.379560|   -4.317374|   -4.498763|   -6.260611|
|        1340|   -6.388499|   -4.317382|   -4.504494|   -6.260515|
|        1341|   -6.396230|   -4.317169|   -4.508825|   -6.259902|
|        1342|   -6.402745|   -4.316789|   -4.511905|   -6.258868|
|        1343|   -6.408285|   -4.316283|   -4.513742|   -6.257533|
|        1344|   -6.413395|   -4.315674|   -4.514781|   -6.255992|
|        1345|   -6.418169|   -4.314985|   -4.515479|   -6.254298|
|        1346|   -6.422473|   -4.314200|   -4.515824|   -6.252485|
|        1347|   -6.426272|   -4.313272|   -4.515853|   -6.250599|
|        1348|   -6.429610|   -4.312166|   -4.515544|   -6.248709|
|        1349|   -6.432519|   -4.310853|   -4.514847|   -6.246889|
|        1350|   -6.435084|   -4.309339|   -4.513695|   -6.245197|
|        1351|   -6.437574|   -4.307637|   -4.512002|   -6.243682|
|        1352|   -6.440421|   -4.305812|   -4.509803|   -6.242401|
|        1353|   -6.444263|   -4.303952|   -4.507143|   -6.241318|
|        1354|   -6.449482|   -4.302186|   -4.504116|   -6.240385|
|        1355|   -6.456309|   -4.300621|   -4.500869|   -6.239527|
|        1356|   -6.464497|   -4.299266|   -4.497662|   -6.238664|
|        1357|   -6.473271|   -4.298046|   -4.494849|   -6.237728|
|        1358|   -6.481631|   -4.296865|   -4.492709|   -6.236618|
|        1359|   -6.488501|   -4.295714|   -4.491388|   -6.235250|
|        1360|   -6.493131|   -4.294626|   -4.490834|   -6.233532|
|        1361|   -6.495058|   -4.293612|   -4.490784|   -6.231366|
|        1362|   -6.494230|   -4.292605|   -4.490870|   -6.228653|
|        1363|   -6.491126|   -4.291485|   -4.490876|   -6.225482|
|        1364|   -6.487347|   -4.290179|   -4.490694|   -6.222135|
|        1365|   -6.485918|   -4.288676|   -4.490322|   -6.219053|
|        1366|   -6.489378|   -4.287219|   -4.489654|   -6.216663|
|        1367|   -6.499688|   -4.286300|   -4.488678|   -6.215177|
|        1368|   -6.516126|   -4.286371|   -4.487361|   -6.214372|
|        1369|   -6.534159|   -4.287448|   -4.486084|   -6.214256|
|        1370|   -6.550099|   -4.288973|   -4.485477|   -6.214901|
|        1371|   -6.564230|   -4.290369|   -4.485657|   -6.215654|
|        1372|   -6.577048|   -4.291247|   -4.486570|   -6.216085|
|        1373|   -6.590333|   -4.291506|   -4.487925|   -6.215939|
|        1374|   -6.603974|   -4.291317|   -4.489407|   -6.215386|
|        1375|   -6.617725|   -4.290943|   -4.490775|   -6.214648|
|        1376|   -6.631240|   -4.290592|   -4.491960|   -6.213863|
|        1377|   -6.644272|   -4.290345|   -4.493017|   -6.213086|
|        1378|   -6.656436|   -4.290248|   -4.494041|   -6.212355|
|        1379|   -6.667193|   -4.290302|   -4.495117|   -6.211683|
|        1380|   -6.676169|   -4.290487|   -4.496281|   -6.211084|
|        1381|   -6.683088|   -4.290795|   -4.497525|   -6.210550|
|        1382|   -6.687968|   -4.291220|   -4.498831|   -6.210079|
|        1383|   -6.690871|   -4.291767|   -4.500167|   -6.209659|
|        1384|   -6.692148|   -4.292436|   -4.501496|   -6.209281|
|        1385|   -6.692067|   -4.293225|   -4.502797|   -6.208934|
|        1386|   -6.690925|   -4.294135|   -4.504044|   -6.208605|
|        1387|   -6.688963|   -4.295165|   -4.505290|   -6.208293|
|        1388|   -6.686375|   -4.296314|   -4.506637|   -6.207984|
|        1389|   -6.683046|   -4.297584|   -4.508064|   -6.207663|
|        1390|   -6.678763|   -4.298967|   -4.509558|   -6.207315|
|        1391|   -6.673275|   -4.300451|   -4.511124|   -6.206923|
|        1392|   -6.666432|   -4.302019|   -4.512785|   -6.206472|
|        1393|   -6.658298|   -4.303660|   -4.514564|   -6.205950|
|        1394|   -6.649075|   -4.305361|   -4.516485|   -6.205358|
|        1395|   -6.639036|   -4.307119|   -4.518535|   -6.204704|
|        1396|   -6.628509|   -4.308931|   -4.520685|   -6.204002|
|        1397|   -6.617798|   -4.310789|   -4.522888|   -6.203273|
|        1398|   -6.607177|   -4.312679|   -4.525106|   -6.202540|
|        1399|   -6.596843|   -4.314590|   -4.527276|   -6.201827|
|        1400|   -6.586944|   -4.316511|   -4.529349|   -6.201154|
|        1401|   -6.577529|   -4.318432|   -4.531269|   -6.200537|
|        1402|   -6.568638|   -4.320352|   -4.533023|   -6.199985|
|        1403|   -6.560239|   -4.322265|   -4.534593|   -6.199495|
|        1404|   -6.552299|   -4.324162|   -4.535966|   -6.199056|
|        1405|   -6.544768|   -4.326039|   -4.537125|   -6.198651|
|        1406|   -6.537588|   -4.327898|   -4.538060|   -6.198257|
|        1407|   -6.530708|   -4.329739|   -4.538755|   -6.197857|
|        1408|   -6.524090|   -4.331572|   -4.539191|   -6.197432|
|        1409|   -6.517704|   -4.333420|   -4.539358|   -6.196970|
|        1410|   -6.511485|   -4.335289|   -4.539265|   -6.196461|
|        1411|   -6.505349|   -4.337184|   -4.538915|   -6.195901|
|        1412|   -6.499180|   -4.339109|   -4.538316|   -6.195293|
|        1413|   -6.492899|   -4.341063|   -4.537510|   -6.194644|
|        1414|   -6.486475|   -4.343048|   -4.536581|   -6.193967|
|        1415|   -6.479874|   -4.345062|   -4.535595|   -6.193273|
|        1416|   -6.473148|   -4.347105|   -4.534631|   -6.192566|
|        1417|   -6.466357|   -4.349176|   -4.533733|   -6.191848|
|        1418|   -6.459593|   -4.351274|   -4.532921|   -6.191128|
|        1419|   -6.452960|   -4.353407|   -4.532151|   -6.190414|
|        1420|   -6.446548|   -4.355577|   -4.531339|   -6.189710|
|        1421|   -6.440446|   -4.357781|   -4.530399|   -6.189031|
|        1422|   -6.434771|   -4.360029|   -4.529328|   -6.188394|
|        1423|   -6.429572|   -4.362339|   -4.528140|   -6.187780|
|        1424|   -6.424829|   -4.364719|   -4.526806|   -6.187176|
|        1425|   -6.420472|   -4.367167|   -4.525297|   -6.186577|
|        1426|   -6.416424|   -4.369672|   -4.523580|   -6.185982|
|        1427|   -6.412587|   -4.372216|   -4.521618|   -6.185388|
|        1428|   -6.408899|   -4.374775|   -4.519458|   -6.184793|
|        1429|   -6.405315|   -4.377327|   -4.517155|   -6.184190|
|        1430|   -6.401836|   -4.379859|   -4.514763|   -6.183573|
|        1431|   -6.398469|   -4.382378|   -4.512306|   -6.182935|
|        1432|   -6.395242|   -4.384906|   -4.509803|   -6.182273|
|        1433|   -6.392187|   -4.387470|   -4.507275|   -6.181590|
|        1434|   -6.389325|   -4.390107|   -4.504739|   -6.180887|
|        1435|   -6.386657|   -4.392844|   -4.502200|   -6.180190|
|        1436|   -6.384161|   -4.395695|   -4.499650|   -6.179497|
|        1437|   -6.381797|   -4.398664|   -4.497080|   -6.178813|
|        1438|   -6.379518|   -4.401745|   -4.494476|   -6.178154|
|        1439|   -6.377278|   -4.404935|   -4.491827|   -6.177533|
|        1440|   -6.375037|   -4.408214|   -4.489130|   -6.176965|
|        1441|   -6.372770|   -4.411556|   -4.486404|   -6.176462|
|        1442|   -6.370474|   -4.414946|   -4.483677|   -6.176032|
|        1443|   -6.368146|   -4.418362|   -4.480969|   -6.175686|
|        1444|   -6.365787|   -4.421780|   -4.478287|   -6.175435|
|        1445|   -6.363391|   -4.425174|   -4.475629|   -6.175294|
|        1446|   -6.360966|   -4.428516|   -4.472993|   -6.175283|
|        1447|   -6.358510|   -4.431788|   -4.470377|   -6.175425|
|        1448|   -6.356025|   -4.434980|   -4.467785|   -6.175755|
|        1449|   -6.353520|   -4.438073|   -4.465228|   -6.176295|
|        1450|   -6.350998|   -4.441053|   -4.462707|   -6.177026|
|        1451|   -6.348464|   -4.443927|   -4.460217|   -6.178112|
|        1452|   -6.345892|   -4.446689|   -4.457756|   -6.179526|
|        1453|   -6.343303|   -4.449332|   -4.455327|   -6.181308|
|        1454|   -6.340692|   -4.451844|   -4.452916|   -6.183444|
|        1455|   -6.338054|   -4.454190|   -4.450524|   -6.185963|
|        1456|   -6.335358|   -4.456364|   -4.448128|   -6.188820|
|        1457|   -6.332594|   -4.458364|   -4.445698|   -6.192022|
|        1458|   -6.329756|   -4.460191|   -4.443216|   -6.195525|
|        1459|   -6.326853|   -4.461859|   -4.440691|   -6.199298|
|        1460|   -6.323911|   -4.463405|   -4.438156|   -6.203295|
|        1461|   -6.320963|   -4.464869|   -4.435646|   -6.207470|
|        1462|   -6.318035|   -4.466285|   -4.433180|   -6.211774|
|        1463|   -6.315142|   -4.467685|   -4.430758|   -6.216144|
|        1464|   -6.312297|   -4.469088|   -4.428373|   -6.220551|
|        1465|   -6.309512|   -4.470520|   -4.426027|   -6.224942|
|        1466|   -6.306803|   -4.471982|   -4.423730|   -6.229278|
|        1467|   -6.304190|   -4.473470|   -4.421480|   -6.233537|
|        1468|   -6.301693|   -4.474985|   -4.419281|   -6.237688|
|        1469|   -6.299337|   -4.476524|   -4.417136|   -6.241715|
|        1470|   -6.297136|   -4.478087|   -4.415047|   -6.245581|
|        1471|   -6.295109|   -4.479680|   -4.413016|   -6.249285|
|        1472|   -6.293277|   -4.481312|   -4.411060|   -6.252790|
|        1473|   -6.291644|   -4.482958|   -4.409185|   -6.256128|
|        1474|   -6.290207|   -4.484617|   -4.407368|   -6.259280|
|        1475|   -6.288956|   -4.486251|   -4.405603|   -6.262245|
|        1476|   -6.287880|   -4.487831|   -4.403882|   -6.265042|
|        1477|   -6.286972|   -4.489343|   -4.402198|   -6.267641|
|        1478|   -6.286223|   -4.490774|   -4.400556|   -6.270039|
|        1479|   -6.285626|   -4.492114|   -4.398961|   -6.272249|
|        1480|   -6.285163|   -4.493350|   -4.397422|   -6.274255|
|        1481|   -6.284811|   -4.494465|   -4.395942|   -6.276073|
|        1482|   -6.284548|   -4.495449|   -4.394516|   -6.277714|
|        1483|   -6.284357|   -4.496294|   -4.393130|   -6.279187|
|        1484|   -6.284219|   -4.496994|   -4.391758|   -6.280517|
|        1485|   -6.284121|   -4.497555|   -4.390350|   -6.281699|
|        1486|   -6.284045|   -4.497995|   -4.388875|   -6.282764|
|        1487|   -6.283984|   -4.498301|   -4.387342|   -6.283724|
|        1488|   -6.283953|   -4.498447|   -4.385782|   -6.284582|
|        1489|   -6.283965|   -4.498422|   -4.384243|   -6.285360|
|        1490|   -6.284042|   -4.498218|   -4.382769|   -6.286064|
|        1491|   -6.284194|   -4.497839|   -4.381381|   -6.286702|
|        1492|   -6.284426|   -4.497297|   -4.380089|   -6.287289|
|        1493|   -6.284741|   -4.496599|   -4.378903|   -6.287824|
|        1494|   -6.285140|   -4.495738|   -4.377830|   -6.288322|
|        1495|   -6.285618|   -4.494728|   -4.376879|   -6.288793|
|        1496|   -6.286179|   -4.493590|   -4.376054|   -6.289250|
|        1497|   -6.286828|   -4.492316|   -4.375365|   -6.289688|
|        1498|   -6.287568|   -4.490895|   -4.374820|   -6.290118|
|        1499|   -6.288399|   -4.489323|   -4.374419|   -6.290544|
|        1500|   -6.289314|   -4.487593|   -4.374155|   -6.290971|
+-----------------------------------------------------------------------+
|        File Writing Summary       |              Filename             |
+-----------------------------------------------------------------------+
|SU2 restart                        |restart_venturi_mixturedensity_30kW_fine_test.dat|
|                                   |                     (1198.17 MB/s)|
|Paraview                           |flow_venturi_mixturedensity_30kW_fine_test_00001500.vtu|
