scsub> Executing:  'cd /home/hem1dev/Codes/SU2_Github_Mark_Test/SU2/Venturi'


WARNING: CONV_CRITERIA is deprecated. SU2 will choose the criteria automatically based on the CONV_FIELD.
That is, RESIDUAL for any RMS_* BGS_* value, and CAUCHY for coefficients such as DRAG etc.


-------------------------------------------------------------------------
|    ___ _   _ ___                                                      |
|   / __| | | |_  )   Release 7.1.1 "Blackbird"                         |
|   \__ \ |_| |/ /                                                      |
|   |___/\___//___|   Suite (Computational Fluid Dynamics Code)         |
|                                                                       |
-------------------------------------------------------------------------
| SU2 Project Website: https://su2code.github.io                        |
|                                                                       |
| The SU2 Project is maintained by the SU2 Foundation                   |
| (http://su2foundation.org)                                            |
-------------------------------------------------------------------------
| Copyright 2012-2021, SU2 Contributors                                 |
|                                                                       |
| SU2 is free software; you can redistribute it and/or                  |
| modify it under the terms of the GNU Lesser General Public            |
| License as published by the Free Software Foundation; either          |
| version 2.1 of the License, or (at your option) any later version.    |
|                                                                       |
| SU2 is distributed in the hope that it will be useful,                |
| but WITHOUT ANY WARRANTY; without even the implied warranty of        |
| MERCHANTABILITY or FITNESS FOR A PARTICULAR PURPOSE. See the GNU      |
| Lesser General Public License for more details.                       |
|                                                                       |
| You should have received a copy of the GNU Lesser General Public      |
| License along with SU2. If not, see <http://www.gnu.org/licenses/>.   |
-------------------------------------------------------------------------


WARNING: CONV_CRITERIA is deprecated. SU2 will choose the criteria automatically based on the CONV_FIELD.
That is, RESIDUAL for any RMS_* BGS_* value, and CAUCHY for coefficients such as DRAG etc.


Parsing config file for zone 0


WARNING: CONV_CRITERIA is deprecated. SU2 will choose the criteria automatically based on the CONV_FIELD.
That is, RESIDUAL for any RMS_* BGS_* value, and CAUCHY for coefficients such as DRAG etc.


----------------- Physical Case Definition ( Zone 0 ) -------------------
Incompressible RANS equations.
Turbulence model: Menter's SST
Hybrid RANS/LES: No Hybrid RANS/LES
No restart solution, use the values at infinity (freestream).
Dimensional simulation.
The reference area is 1 m^2.
The semi-span will be computed using the max y(3D) value.
The reference length is 1 m.
Input mesh file name: c6_cms_venturi.cgns

--------------- Space Numerical Integration ( Zone 0 ) ------------------
Flux difference splitting (FDS) upwind scheme for the flow inviscid terms.
Second order integration in space, with slope limiter.
No slope-limiting method. 
Average of gradients with correction (viscous flow terms).
Average of gradients with correction (viscous turbulence terms).
Gradient for upwind reconstruction: inverse-distance weighted Least-Squares.
Gradient for viscous and source terms: inverse-distance weighted Least-Squares.

--------------- Time Numerical Integration  ( Zone 0 ) ------------------
Local time stepping (steady state simulation).
Euler implicit method for the flow equations.
FGMRES is used for solving the linear system.
Using a ILU(0) preconditioning.
Convergence criteria of the linear solver: 1e-08.
Max number of linear iterations: 20.
No CFL adaptation.
Courant-Friedrichs-Lewy number:      100
Euler implicit time integration for the turbulence model.

------------------ Convergence Criteria  ( Zone 0 ) ---------------------
Maximum number of solver subiterations: 10000.
Begin convergence monitoring at iteration 10.
Residual minimum value: 1e-10.
Cauchy series min. value: 1e-06.
Number of Cauchy elements: 100.
Begin windowed time average at iteration 0.

-------------------- Output Information ( Zone 0 ) ----------------------
Writing solution files every 500 iterations.
Writing the convergence history file every 1 inner iterations.
Writing the screen convergence history every 1 inner iterations.
The tabular file format is CSV (.csv).
Convergence history file name: history_test.
Forces breakdown file name: forces_breakdown.dat.
Surface file name: surface_flow_venturi_mixturedensity_30kW_fine_test.
Volume file name: flow_venturi_mixturedensity_30kW_fine_test.
Restart file name: restart_venturi_mixturedensity_30kW_fine_test.dat.

------------- Config File Boundary Information ( Zone 0 ) ---------------
+-----------------------------------------------------------------------+
|                        Marker Type|                        Marker Name|
+-----------------------------------------------------------------------+
|                     Symmetry plane|                               axis|
+-----------------------------------------------------------------------+
|                     Inlet boundary|                          gas_inlet|
|                                   |                          air_inlet|
+-----------------------------------------------------------------------+
|                    Outlet boundary|                             outlet|
+-----------------------------------------------------------------------+
|                     Heat flux wall|            wall-component1-surface|
+-----------------------------------------------------------------------+

-------------------- Output Preprocessing ( Zone 0 ) --------------------
Screen output fields: INNER_ITER, RMS_PRESSURE, RMS_VELOCITY-X, RMS_VELOCITY-Y, RMS_PASSIVE_SCALAR
History output group(s): RMS_RES, AERO_COEFF, FLOW_COEFF
Convergence field(s): RMS_PRESSURE, RMS_VELOCITY-X, RMS_VELOCITY-Y, RMS_TKE
Warning: No (valid) fields chosen for time convergence monitoring. Time convergence monitoring inactive.
  Info: Ignoring the following volume output fields/groups:
  SOURCE, LOOKUP
Volume output fields: DENSITY, SOLUTION, PRIMITIVE, RESIDUAL, COORDINATES

------------------- Geometry Preprocessing ( Zone 0 ) -------------------
Reading the CGNS file: c6_cms_venturi.cgns.
CGNS file contains 1 database(s).
Database 1, Base:  cell dimension of 2, physical dimension of 2.
1 total zone(s).
Zone 1, Zone: 292948 total vertices, 295883 total elements.
Loading CoordinateX values into linear partitions.
Loading CoordinateY values into linear partitions.
Distributing connectivity across all ranks.
Number of connectivity sections is 6.
Section gas_inlet contains 51 elements of type Mixed.
Section air_inlet contains 150 elements of type Mixed.
Section outlet contains 157 elements of type Mixed.
Section axis contains 1721 elements of type Mixed.
Section component1-surface contains 290183 elements of type Mixed.
Section wall-component1-surface contains 3621 elements of type Mixed.
Loading surface section gas_inlet from file.
Loading surface section air_inlet from file.
Loading surface section outlet from file.
Loading surface section axis from file.
Loading volume section component1-surface from file.
Loading surface section wall-component1-surface from file.
Two dimensional problem.
292948 grid points before partitioning.
290183 volume elements before partitioning.
5 surface markers.
51 boundary elements in index 0 (Marker = gas_inlet).
150 boundary elements in index 1 (Marker = air_inlet).
157 boundary elements in index 2 (Marker = outlet).
1721 boundary elements in index 3 (Marker = axis).
3621 boundary elements in index 4 (Marker = wall-component1-surface).
Executing the partitioning functions.
Building the graph adjacency structure.
Calling ParMETIS... graph partitioning complete (8746 edge cuts).
Distributing ParMETIS coloring.
Rebalancing vertices.
Rebalancing volume element connectivity.
Rebalancing markers and surface elements.
310564 vertices including ghost points. 
298925 interior elements including halo cells. 
176 triangles.
298749 quadrilaterals.
Establishing MPI communication patterns.
Setting point connectivity.
Renumbering points (Reverse Cuthill McKee Ordering).
Recomputing point connectivity.
Setting element connectivity.
Checking the numerical grid orientation.
All volume elements are correctly orientend.
All surface elements are correctly orientend.
Identifying edges and vertices.
Setting the control volume structure.
Area of the computational grid: 0.00281152.
Searching for the closest normal neighbors to the surfaces.
Storing a mapping from global to local point index.
Compute the surface curvature.
Max K: 25766.3. Mean K: 66.0693. Standard deviation K: 1007.76.
Checking for periodicity.
Computing mesh quality statistics for the dual control volumes.
+--------------------------------------------------------------+
|           Mesh Quality Metric|        Minimum|        Maximum|
+--------------------------------------------------------------+
|    Orthogonality Angle (deg.)|        45.2115|             90|
|     CV Face Area Aspect Ratio|              1|        10.3208|
|           CV Sub-Volume Ratio|              1|        9.85984|
+--------------------------------------------------------------+
Finding max control volume width.
Communicating number of neighbors.
Wetted area = 0 m.
Area projection in the x-plane = 0 m, y-plane = 0 m.
Max. coordinate in the x-direction = -1e+10 m, y-direction = -1e+10 m.
Min. coordinate in the x-direction = 1e+10 m, y-direction = 1e+10 m.
Checking if Euler & Symmetry markers are straight/plane:
Boundary marker axis is a single straight.
Computing wall distances.

-------------------- Solver Preprocessing ( Zone 0 ) --------------------
Incompressible flow: rho_ref, vel_ref, temp_ref, p_ref
are set to 1.0 in order to perform a dimensional calculation.
Force coefficients computed using initial values.
The reference area for force coeffs. is 1 m^2.
The reference length for force coeffs. is 1 m.
The pressure is decomposed into thermodynamic and dynamic components.
The initial value of the dynamic pressure is 0.
Mach number: 0, computed using fluid speed of sound.
For external flows, the initial state is imposed at the far-field.
Angle of attack (deg): 0, computed using the initial velocity.
Side slip angle (deg): 0, computed using the initial velocity.
Reynolds number per meter: 65290.8, computed using initial values.
Reynolds number is a byproduct of inputs only (not used internally).
SI units only. The grid should be dimensional (meters).
Energy equation is active and coupled for variable density.

-- Models:
+------------------------------------------------------------------------------+
|          Viscosity Model|        Conductivity Model|              Fluid Model|
+------------------------------------------------------------------------------+
|       CONSTANT_VISCOSITY|                  CONSTANT|+------------------------------------------------------------------------------+
-- Fluid properties:
+------------------------------------------------------------------------------+
|                  Name|    Dim. value|    Ref. value|      Unit|Non-dim. value|
+------------------------------------------------------------------------------+
|             Viscosity|     1.118e-05|             1|   N.s/m^2|     1.118e-05|
+------------------------------------------------------------------------------+
|       Molecular Cond.|         0.072|             1|   W/m^2.K|         0.072|
+------------------------------------------------------------------------------+
-- Initial and free-stream conditions:
+------------------------------------------------------------------------------+
|                  Name|    Dim. value|    Ref. value|      Unit|Non-dim. value|
+------------------------------------------------------------------------------+
|      Dynamic Pressure|             0|             1|        Pa|             0|
|        Total Pressure|      0.585985|             1|        Pa|      0.585985|
|               Density|       1.17197|             1|    kg/m^3|       1.17197|
|           Temperature|           300|             1|         K|           300|
|            Velocity-X|             1|             1|       m/s|             1|
|            Velocity-Y|             0|             1|       m/s|             0|
|    Velocity Magnitude|             1|             1|       m/s|             1|
+------------------------------------------------------------------------------+
|             Viscosity|     1.795e-05|             1|   N.s/m^2|     1.795e-05|
|          Conductivity|             -|             1|   W/m^2.K|             -|
|     Turb. Kin. Energy|       0.00375|             1|   m^2/s^2|       0.00375|
|     Spec. Dissipation|       24.4841|             1|       1/s|       24.4841|
+------------------------------------------------------------------------------+
|           Mach Number|             -|             -|         -|             0|
|       Reynolds Number|             -|             -|         -|       65290.8|
+------------------------------------------------------------------------------+
Initialize Jacobian structure (Navier-Stokes). MG level: 0.
Initialize Jacobian structure (passive scalar model).
Initialize Jacobian structure (SST model).

------------------- Numerics Preprocessing ( Zone 0 ) -------------------

----------------- Integration Preprocessing ( Zone 0 ) ------------------

------------------- Iteration Preprocessing ( Zone 0 ) ------------------
Euler/Navier-Stokes/RANS fluid iteration.

------------------------------ Begin Solver -----------------------------

Simulation Run using the Single-zone Driver
Initializing passive scalar (initial condition).
initialization = 1 1
+----------------------------------------------------------------+
|  Inner_Iter|      rms[P]|      rms[U]|      rms[V]|      rms[c]|
+----------------------------------------------------------------+
|           0|   -5.116953|   -4.847332|   -4.364756|   -5.710014|
|           1|   -4.986664|   -4.844342|   -4.071097|   -5.228501|
|           2|   -5.397912|   -4.543874|   -4.030100|   -5.335502|
|           3|   -5.504254|   -4.736086|   -4.076735|   -5.471068|
|           4|   -5.655709|   -4.832053|   -4.095553|   -5.522869|
|           5|   -5.628521|   -4.890813|   -4.330221|   -5.548290|
|           6|   -5.728511|   -4.859052|   -4.567050|   -5.577568|
|           7|   -5.768854|   -4.803265|   -4.706550|   -5.628017|
|           8|   -5.800315|   -4.764661|   -4.691484|   -5.690207|
|           9|   -5.808394|   -4.744324|   -4.588951|   -5.741743|
|          10|   -5.782138|   -4.732260|   -4.425757|   -5.767585|
|          11|   -5.754005|   -4.720710|   -4.321395|   -5.770184|
|          12|   -5.755093|   -4.708718|   -4.284457|   -5.758293|
|          13|   -5.783110|   -4.695917|   -4.288741|   -5.741342|
|          14|   -5.821328|   -4.680058|   -4.315588|   -5.726166|
|          15|   -5.857393|   -4.659061|   -4.350718|   -5.715805|
|          16|   -5.886796|   -4.633480|   -4.380310|   -5.710125|
|          17|   -5.908629|   -4.606013|   -4.394133|   -5.707452|
|          18|   -5.923202|   -4.579339|   -4.389964|   -5.705834|
|          19|   -5.932291|   -4.554864|   -4.373604|   -5.703807|
|          20|   -5.938880|   -4.532817|   -4.353508|   -5.700620|
|          21|   -5.945814|   -4.512848|   -4.336147|   -5.696153|
|          22|   -5.954637|   -4.494528|   -4.324538|   -5.690673|
|          23|   -5.965414|   -4.477528|   -4.318531|   -5.684602|
|          24|   -5.977309|   -4.461622|   -4.316718|   -5.678348|
|          25|   -5.989324|   -4.446632|   -4.316917|   -5.672198|
|          26|   -6.000763|   -4.432395|   -4.316673|   -5.666282|
|          27|   -6.011318|   -4.418769|   -4.315413|   -5.660596|
|          28|   -6.020977|   -4.405680|   -4.313394|   -5.655098|
|          29|   -6.029870|   -4.393074|   -4.310928|   -5.649732|
|          30|   -6.038180|   -4.380902|   -4.308495|   -5.644458|
|          31|   -6.046047|   -4.369089|   -4.306462|   -5.639260|
|          32|   -6.053555|   -4.357558|   -4.304999|   -5.634137|
|          33|   -6.060689|   -4.346237|   -4.304037|   -5.629073|
|          34|   -6.067396|   -4.335097|   -4.303270|   -5.624061|
|          35|   -6.073642|   -4.324161|   -4.302404|   -5.619114|
|          36|   -6.079407|   -4.313479|   -4.301045|   -5.614278|
|          37|   -6.084707|   -4.303064|   -4.298119|   -5.609609|
|          38|   -6.089632|   -4.292899|   -4.292725|   -5.605158|
|          39|   -6.094319|   -4.283011|   -4.286989|   -5.600952|
|          40|   -6.098704|   -4.273408|   -4.281679|   -5.596975|
|          41|   -6.102689|   -4.264061|   -4.277201|   -5.593168|
|          42|   -6.106283|   -4.254896|   -4.273872|   -5.589502|
|          43|   -6.109584|   -4.245724|   -4.270779|   -5.585981|
|          44|   -6.112718|   -4.236413|   -4.268688|   -5.582696|
|          45|   -6.115584|   -4.226939|   -4.266979|   -5.579709|
|          46|   -6.118175|   -4.217535|   -4.266663|   -5.576995|
|          47|   -6.120399|   -4.208627|   -4.267574|   -5.574489|
|          48|   -6.122272|   -4.200590|   -4.268405|   -5.572099|
|          49|   -6.124019|   -4.193741|   -4.269424|   -5.569777|
|          50|   -6.125687|   -4.188272|   -4.271068|   -5.567481|
|          51|   -6.127131|   -4.184180|   -4.273238|   -5.565244|
|          52|   -6.128418|   -4.181309|   -4.275967|   -5.563121|
|          53|   -6.129531|   -4.179414|   -4.279343|   -5.561192|
|          54|   -6.130434|   -4.178239|   -4.283362|   -5.559454|
|          55|   -6.131032|   -4.177614|   -4.287829|   -5.557804|
|          56|   -6.131229|   -4.177459|   -4.292399|   -5.556025|
|          57|   -6.131047|   -4.177725|   -4.296700|   -5.553856|
|          58|   -6.130604|   -4.178332|   -4.300350|   -5.551081|
|          59|   -6.129624|   -4.179081|   -4.302960|   -5.547607|
|          60|   -6.127627|   -4.179627|   -4.304024|   -5.543457|
|          61|   -6.124318|   -4.179495|   -4.303429|   -5.538701|
|          62|   -6.119587|   -4.178224|   -4.301444|   -5.533405|
|          63|   -6.113438|   -4.175529|   -4.298255|   -5.527637|
|          64|   -6.106017|   -4.171382|   -4.293918|   -5.521477|
|          65|   -6.097494|   -4.166019|   -4.288302|   -5.514982|
|          66|   -6.087877|   -4.159839|   -4.281063|   -5.508172|
|          67|   -6.077032|   -4.153236|   -4.271719|   -5.501005|
|          68|   -6.064768|   -4.146491|   -4.259812|   -5.493357|
|          69|   -6.050793|   -4.139582|   -4.244989|   -5.485045|
|          70|   -6.034919|   -4.132282|   -4.227231|   -5.475851|
|          71|   -6.016952|   -4.124431|   -4.206715|   -5.465693|
|          72|   -5.997746|   -4.116398|   -4.183864|   -5.454744|
|          73|   -5.977003|   -4.108184|   -4.159160|   -5.443890|
|          74|   -5.955323|   -4.100089|   -4.134288|   -5.434724|
|          75|   -5.935401|   -4.092257|   -4.112093|   -5.428845|
|          76|   -5.920233|   -4.084438|   -4.095783|   -5.427182|
|          77|   -5.911495|   -4.076389|   -4.087130|   -5.429564|
|          78|   -5.908560|   -4.068600|   -4.087502|   -5.434744|
|          79|   -5.910099|   -4.061934|   -4.094970|   -5.441142|
|          80|   -5.915385|   -4.057165|   -4.104581|   -5.447702|
|          81|   -5.922428|   -4.054129|   -4.114412|   -5.454278|
|          82|   -5.930465|   -4.051952|   -4.124245|   -5.460801|
|          83|   -5.938458|   -4.049408|   -4.134604|   -5.466963|
|          84|   -5.944657|   -4.045776|   -4.144620|   -5.472468|
|          85|   -5.947865|   -4.041327|   -4.153022|   -5.476591|
|          86|   -5.947106|   -4.034923|   -4.159688|   -5.478607|
|          87|   -5.942105|   -4.026537|   -4.164362|   -5.477872|
|          88|   -5.932905|   -4.017441|   -4.164899|   -5.474056|
|          89|   -5.921051|   -4.007532|   -4.157765|   -5.467079|
|          90|   -5.907778|   -3.997036|   -4.140936|   -5.456959|
|          91|   -5.890539|   -3.986893|   -4.115622|   -5.444787|
|          92|   -5.869360|   -3.978183|   -4.086771|   -5.432358|
|          93|   -5.845817|   -3.971439|   -4.059799|   -5.421813|
|          94|   -5.823521|   -3.966765|   -4.038795|   -5.414543|
|          95|   -5.806867|   -3.963869|   -4.025805|   -5.410772|
|          96|   -5.797125|   -3.962270|   -4.020189|   -5.410170|
|          97|   -5.792711|   -3.961321|   -4.019497|   -5.412253|
|          98|   -5.792917|   -3.960440|   -4.021810|   -5.416384|
|          99|   -5.797083|   -3.959772|   -4.026348|   -5.422085|
|         100|   -5.805100|   -3.959469|   -4.032554|   -5.428783|
|         101|   -5.815971|   -3.959709|   -4.040977|   -5.436062|
|         102|   -5.828971|   -3.960891|   -4.051572|   -5.443199|
|         103|   -5.842892|   -3.963662|   -4.063508|   -5.449870|
|         104|   -5.858305|   -3.967785|   -4.075669|   -5.456100|
|         105|   -5.873409|   -3.972949|   -4.087888|   -5.461499|
|         106|   -5.888235|   -3.979146|   -4.100042|   -5.465446|
|         107|   -5.902005|   -3.986243|   -4.110893|   -5.467147|
|         108|   -5.913246|   -3.994263|   -4.118478|   -5.466245|
|         109|   -5.922093|   -4.002567|   -4.121936|   -5.462585|
|         110|   -5.925749|   -4.010734|   -4.122401|   -5.456772|
|         111|   -5.922790|   -4.018225|   -4.121053|   -5.449555|
|         112|   -5.912061|   -4.024686|   -4.118645|   -5.442715|
|         113|   -5.902507|   -4.029507|   -4.115671|   -5.436165|
|         114|   -5.892018|   -4.032053|   -4.113469|   -5.430284|
|         115|   -5.881056|   -4.033248|   -4.112076|   -5.425338|
|         116|   -5.871586|   -4.033875|   -4.112221|   -5.421623|
|         117|   -5.863800|   -4.034466|   -4.114207|   -5.419185|
|         118|   -5.857368|   -4.035598|   -4.117627|   -5.418360|
|         119|   -5.853452|   -4.037829|   -4.122260|   -5.419165|
|         120|   -5.851304|   -4.041303|   -4.127445|   -5.421651|
|         121|   -5.851380|   -4.045820|   -4.132814|   -5.425674|
|         122|   -5.852852|   -4.051377|   -4.137622|   -5.431192|
|         123|   -5.856158|   -4.057763|   -4.140841|   -5.437923|
|         124|   -5.860775|   -4.064856|   -4.142040|   -5.445352|
|         125|   -5.865356|   -4.072445|   -4.141327|   -5.453066|
|         126|   -5.870040|   -4.080187|   -4.138795|   -5.460915|
|         127|   -5.874453|   -4.087624|   -4.135061|   -5.468730|
|         128|   -5.878380|   -4.094571|   -4.130250|   -5.476277|
|         129|   -5.882170|   -4.100797|   -4.124947|   -5.483422|
|         130|   -5.885357|   -4.106329|   -4.118325|   -5.490385|
|         131|   -5.892437|   -4.110398|   -4.111527|   -5.496343|
|         132|   -5.900122|   -4.113946|   -4.105837|   -5.501241|
|         133|   -5.907352|   -4.117141|   -4.101323|   -5.505235|
|         134|   -5.913495|   -4.119882|   -4.098086|   -5.508492|
|         135|   -5.918871|   -4.122404|   -4.096132|   -5.511183|
|         136|   -5.923520|   -4.124697|   -4.095350|   -5.513401|
|         137|   -5.927675|   -4.126769|   -4.095609|   -5.515364|
|         138|   -5.931162|   -4.128565|   -4.096679|   -5.517087|
|         139|   -5.934527|   -4.130015|   -4.098259|   -5.518693|
|         140|   -5.937698|   -4.131203|   -4.100056|   -5.520031|
|         141|   -5.940786|   -4.132281|   -4.101932|   -5.521109|
|         142|   -5.943473|   -4.133264|   -4.103619|   -5.521916|
|         143|   -5.945359|   -4.134123|   -4.105290|   -5.522571|
|         144|   -5.946816|   -4.134946|   -4.107003|   -5.523105|
|         145|   -5.947622|   -4.135578|   -4.108494|   -5.523495|
|         146|   -5.948431|   -4.136457|   -4.109488|   -5.523796|
|         147|   -5.949504|   -4.137644|   -4.110070|   -5.524013|
|         148|   -5.950686|   -4.138878|   -4.110260|   -5.524179|
|         149|   -5.951700|   -4.140221|   -4.110066|   -5.524375|
|         150|   -5.953366|   -4.141672|   -4.109531|   -5.524742|
|         151|   -5.955872|   -4.143397|   -4.108823|   -5.525300|
|         152|   -5.958529|   -4.145458|   -4.108327|   -5.525934|
|         153|   -5.961939|   -4.147690|   -4.108065|   -5.526453|
|         154|   -5.965823|   -4.149854|   -4.107578|   -5.526804|
|         155|   -5.969780|   -4.151922|   -4.106832|   -5.526883|
|         156|   -5.973615|   -4.154112|   -4.106207|   -5.526805|
|         157|   -5.976702|   -4.156369|   -4.105709|   -5.526576|
|         158|   -5.978660|   -4.158506|   -4.105368|   -5.526247|
|         159|   -5.980143|   -4.160345|   -4.105312|   -5.525816|
|         160|   -5.981856|   -4.162174|   -4.105474|   -5.525289|
|         161|   -5.983500|   -4.164132|   -4.105909|   -5.524536|
|         162|   -5.985264|   -4.165882|   -4.106539|   -5.523641|
|         163|   -5.986794|   -4.167414|   -4.107331|   -5.522625|
|         164|   -5.987668|   -4.168655|   -4.108187|   -5.521487|
|         165|   -5.988727|   -4.169658|   -4.108974|   -5.520200|
|         166|   -5.989580|   -4.170399|   -4.109600|   -5.518687|
|         167|   -5.989891|   -4.170664|   -4.109977|   -5.516898|
|         168|   -5.989931|   -4.170573|   -4.110023|   -5.514831|
|         169|   -5.989417|   -4.169886|   -4.109643|   -5.512513|
|         170|   -5.988498|   -4.168513|   -4.108665|   -5.510044|
|         171|   -5.987031|   -4.166282|   -4.106873|   -5.507496|
|         172|   -5.985377|   -4.163402|   -4.104627|   -5.504929|
|         173|   -5.983473|   -4.160094|   -4.102084|   -5.502362|
|         174|   -5.982226|   -4.156479|   -4.099437|   -5.499780|
|         175|   -5.981438|   -4.152955|   -4.096779|   -5.497140|
|         176|   -5.981102|   -4.149330|   -4.094057|   -5.494443|
|         177|   -5.981043|   -4.145276|   -4.091355|   -5.491710|
|         178|   -5.980801|   -4.140760|   -4.088505|   -5.488973|
|         179|   -5.981130|   -4.135883|   -4.085673|   -5.486280|
|         180|   -5.981828|   -4.130541|   -4.082844|   -5.483644|
|         181|   -5.982969|   -4.124937|   -4.079994|   -5.481056|
|         182|   -5.984158|   -4.119365|   -4.077036|   -5.478481|
|         183|   -5.985861|   -4.113900|   -4.073686|   -5.475887|
|         184|   -5.987628|   -4.108332|   -4.069992|   -5.473239|
|         185|   -5.989560|   -4.102785|   -4.065983|   -5.470564|
|         186|   -5.991464|   -4.097616|   -4.061711|   -5.467948|
|         187|   -5.993423|   -4.092809|   -4.057126|   -5.465437|
|         188|   -5.995267|   -4.088130|   -4.052371|   -5.463016|
|         189|   -5.997382|   -4.083742|   -4.047535|   -5.460691|
|         190|   -5.999830|   -4.079933|   -4.042766|   -5.458383|
|         191|   -6.002610|   -4.076632|   -4.038164|   -5.456096|
|         192|   -6.005549|   -4.073796|   -4.033863|   -5.453843|
|         193|   -6.008584|   -4.071312|   -4.029933|   -5.451652|
|         194|   -6.011465|   -4.069034|   -4.026368|   -5.449548|
|         195|   -6.014391|   -4.066953|   -4.023124|   -5.447565|
|         196|   -6.017069|   -4.064958|   -4.020239|   -5.445731|
|         197|   -6.019624|   -4.063111|   -4.017786|   -5.444052|
|         198|   -6.021916|   -4.061482|   -4.015848|   -5.442532|
|         199|   -6.024258|   -4.060032|   -4.014355|   -5.441154|
|         200|   -6.026387|   -4.058684|   -4.013209|   -5.439909|
|         201|   -6.028708|   -4.057461|   -4.012294|   -5.438809|
|         202|   -6.030982|   -4.056421|   -4.011513|   -5.437899|
|         203|   -6.033191|   -4.055495|   -4.010767|   -5.437190|
|         204|   -6.035189|   -4.054517|   -4.010093|   -5.436694|
|         205|   -6.037192|   -4.053536|   -4.009620|   -5.436409|
|         206|   -6.039404|   -4.052747|   -4.009441|   -5.436333|
|         207|   -6.041817|   -4.052122|   -4.009490|   -5.436445|
|         208|   -6.044198|   -4.051638|   -4.009630|   -5.436762|
|         209|   -6.046762|   -4.051333|   -4.009791|   -5.437273|
|         210|   -6.049186|   -4.051068|   -4.009923|   -5.437967|
|         211|   -6.051745|   -4.050766|   -4.009976|   -5.438849|
|         212|   -6.054218|   -4.050331|   -4.010030|   -5.439915|
|         213|   -6.056852|   -4.049748|   -4.010188|   -5.441191|
|         214|   -6.059698|   -4.049024|   -4.010544|   -5.442681|
|         215|   -6.062818|   -4.048144|   -4.011076|   -5.444386|
|         216|   -6.065999|   -4.047114|   -4.011796|   -5.446297|
|         217|   -6.069548|   -4.045990|   -4.012665|   -5.448356|
|         218|   -6.073712|   -4.044751|   -4.013688|   -5.450564|
|         219|   -6.078542|   -4.043441|   -4.014828|   -5.452923|
|         220|   -6.083846|   -4.042118|   -4.016080|   -5.455441|
|         221|   -6.089622|   -4.040722|   -4.017392|   -5.458091|
|         222|   -6.095871|   -4.039105|   -4.018748|   -5.460859|
|         223|   -6.102506|   -4.037269|   -4.020264|   -5.463740|
|         224|   -6.109575|   -4.035317|   -4.022068|   -5.466731|
|         225|   -6.116918|   -4.033373|   -4.024195|   -5.469816|
|         226|   -6.124582|   -4.031406|   -4.026653|   -5.472991|
|         227|   -6.132475|   -4.029413|   -4.029473|   -5.476255|
|         228|   -6.140369|   -4.027355|   -4.032697|   -5.479614|
|         229|   -6.148288|   -4.025275|   -4.036315|   -5.483064|
|         230|   -6.156359|   -4.023198|   -4.040277|   -5.486600|
|         231|   -6.164441|   -4.021160|   -4.044567|   -5.490224|
|         232|   -6.172617|   -4.019217|   -4.049109|   -5.493926|
|         233|   -6.180782|   -4.017295|   -4.053943|   -5.497714|
|         234|   -6.188990|   -4.015421|   -4.059018|   -5.501577|
|         235|   -6.197833|   -4.013632|   -4.064334|   -5.505525|
|         236|   -6.206816|   -4.011995|   -4.069852|   -5.509523|
|         237|   -6.215978|   -4.010509|   -4.075509|   -5.513567|
|         238|   -6.225769|   -4.009222|   -4.081290|   -5.517667|
|         239|   -6.235822|   -4.008121|   -4.087143|   -5.521802|
|         240|   -6.245838|   -4.007124|   -4.092952|   -5.525956|
|         241|   -6.255996|   -4.006215|   -4.098677|   -5.530150|
|         242|   -6.266149|   -4.005375|   -4.104299|   -5.534373|
|         243|   -6.276100|   -4.004558|   -4.109730|   -5.538604|
|         244|   -6.285324|   -4.003720|   -4.114967|   -5.542857|
|         245|   -6.294111|   -4.002890|   -4.119910|   -5.547115|
|         246|   -6.302293|   -4.002068|   -4.124547|   -5.551368|
|         247|   -6.309468|   -4.001254|   -4.128853|   -5.555607|
|         248|   -6.315694|   -4.000434|   -4.132784|   -5.559831|
|         249|   -6.320921|   -3.999584|   -4.136194|   -5.564043|
|         250|   -6.325554|   -3.998709|   -4.139066|   -5.568227|
|         251|   -6.329608|   -3.997818|   -4.141570|   -5.572381|
|         252|   -6.332985|   -3.996915|   -4.143732|   -5.576510|
|         253|   -6.335866|   -3.995969|   -4.145594|   -5.580634|
|         254|   -6.338415|   -3.994930|   -4.147138|   -5.584741|
|         255|   -6.340614|   -3.993877|   -4.148420|   -5.588847|
|         256|   -6.343384|   -3.992754|   -4.149560|   -5.592966|
|         257|   -6.345867|   -3.991659|   -4.150627|   -5.597045|
|         258|   -6.348984|   -3.990470|   -4.151709|   -5.601148|
|         259|   -6.351997|   -3.989288|   -4.152838|   -5.605199|
|         260|   -6.355720|   -3.988084|   -4.154138|   -5.609239|
|         261|   -6.359428|   -3.986856|   -4.155689|   -5.613219|
|         262|   -6.363439|   -3.985590|   -4.157478|   -5.617153|
|         263|   -6.367269|   -3.984207|   -4.159495|   -5.621024|
|         264|   -6.371008|   -3.982736|   -4.161634|   -5.624822|
|         265|   -6.373956|   -3.981115|   -4.163824|   -5.628539|
|         266|   -6.376773|   -3.979400|   -4.165906|   -5.632177|
|         267|   -6.378419|   -3.977628|   -4.167763|   -5.635690|
|         268|   -6.379742|   -3.975874|   -4.169296|   -5.639128|
|         269|   -6.379893|   -3.974236|   -4.170409|   -5.642407|
|         270|   -6.379421|   -3.972695|   -4.171026|   -5.645612|
|         271|   -6.378202|   -3.971354|   -4.170958|   -5.648663|
|         272|   -6.376549|   -3.970126|   -4.170435|   -5.651625|
|         273|   -6.374110|   -3.969124|   -4.169451|   -5.654437|
|         274|   -6.371562|   -3.968229|   -4.168182|   -5.657182|
|         275|   -6.368427|   -3.967455|   -4.166640|   -5.659809|
|         276|   -6.365488|   -3.966801|   -4.164832|   -5.662438|
|         277|   -6.363285|   -3.966359|   -4.162937|   -5.665015|
|         278|   -6.361683|   -3.966257|   -4.160939|   -5.667586|
|         279|   -6.360667|   -3.966447|   -4.159073|   -5.670154|
|         280|   -6.361051|   -3.966967|   -4.157414|   -5.672771|
|         281|   -6.361726|   -3.967771|   -4.156150|   -5.675347|
|         282|   -6.363590|   -3.968778|   -4.155402|   -5.678012|
|         283|   -6.365480|   -3.970005|   -4.155245|   -5.680678|
|         284|   -6.367503|   -3.971404|   -4.155789|   -5.683415|
|         285|   -6.369740|   -3.972994|   -4.157029|   -5.686259|
|         286|   -6.371540|   -3.974720|   -4.158952|   -5.689162|
|         287|   -6.372626|   -3.976504|   -4.161523|   -5.692149|
|         288|   -6.373221|   -3.978321|   -4.164703|   -5.695247|
|         289|   -6.373129|   -3.980134|   -4.168440|   -5.698425|
|         290|   -6.371951|   -3.981888|   -4.172626|   -5.701667|
|         291|   -6.369605|   -3.983501|   -4.177064|   -5.704950|
|         292|   -6.366187|   -3.984894|   -4.181445|   -5.708229|
|         293|   -6.361658|   -3.985989|   -4.185358|   -5.711468|
|         294|   -6.356031|   -3.986704|   -4.188374|   -5.714600|
|         295|   -6.349620|   -3.986990|   -4.190114|   -5.717603|
|         296|   -6.342419|   -3.986869|   -4.190176|   -5.720421|
|         297|   -6.334188|   -3.986343|   -4.188269|   -5.722961|
|         298|   -6.325472|   -3.985464|   -4.184362|   -5.725237|
|         299|   -6.316710|   -3.984402|   -4.178526|   -5.727217|
|         300|   -6.307685|   -3.983269|   -4.171059|   -5.728846|
|         301|   -6.298320|   -3.982176|   -4.162254|   -5.730112|
|         302|   -6.288789|   -3.981254|   -4.152461|   -5.731046|
|         303|   -6.279338|   -3.980684|   -4.141937|   -5.731702|
|         304|   -6.270348|   -3.980607|   -4.131029|   -5.732101|
|         305|   -6.261678|   -3.981066|   -4.120133|   -5.732270|
|         306|   -6.253321|   -3.982117|   -4.109539|   -5.732264|
|         307|   -6.245288|   -3.983809|   -4.099522|   -5.732128|
|         308|   -6.237348|   -3.986199|   -4.090646|   -5.731889|
|         309|   -6.229334|   -3.989289|   -4.083113|   -5.731595|
|         310|   -6.221301|   -3.993047|   -4.076999|   -5.731299|
|         311|   -6.213171|   -3.997412|   -4.072336|   -5.731027|
|         312|   -6.204908|   -4.002292|   -4.069092|   -5.730754|
|         313|   -6.196336|   -4.007566|   -4.067136|   -5.730535|
|         314|   -6.187554|   -4.013181|   -4.066317|   -5.730355|
|         315|   -6.178359|   -4.019126|   -4.066504|   -5.730285|
|         316|   -6.168716|   -4.025434|   -4.067630|   -5.730385|
|         317|   -6.158664|   -4.032121|   -4.069709|   -5.730809|
|         318|   -6.148357|   -4.039208|   -4.072892|   -5.731676|
|         319|   -6.137926|   -4.046722|   -4.077257|   -5.733144|
|         320|   -6.127681|   -4.054676|   -4.082751|   -5.735321|
|         321|   -6.117871|   -4.062999|   -4.089129|   -5.738310|
|         322|   -6.109619|   -4.071684|   -4.095472|   -5.742257|
|         323|   -6.103758|   -4.080645|   -4.101282|   -5.746984|
|         324|   -6.099436|   -4.089723|   -4.107193|   -5.752218|
|         325|   -6.095473|   -4.098601|   -4.113418|   -5.757910|
|         326|   -6.091375|   -4.107090|   -4.119834|   -5.764013|
|         327|   -6.087003|   -4.115043|   -4.126283|   -5.770455|
|         328|   -6.082503|   -4.122321|   -4.132631|   -5.777130|
|         329|   -6.078057|   -4.128866|   -4.138692|   -5.783920|
|         330|   -6.073654|   -4.134654|   -4.144234|   -5.790700|
|         331|   -6.069130|   -4.139740|   -4.149092|   -5.797365|
|         332|   -6.064420|   -4.144249|   -4.153113|   -5.803842|
|         333|   -6.059471|   -4.148350|   -4.156152|   -5.810083|
|         334|   -6.054336|   -4.152258|   -4.158241|   -5.816074|
|         335|   -6.049090|   -4.156136|   -4.159558|   -5.821818|
|         336|   -6.043833|   -4.160160|   -4.160305|   -5.827335|
|         337|   -6.038704|   -4.164435|   -4.160712|   -5.832645|
|         338|   -6.033776|   -4.169041|   -4.161008|   -5.837778|
|         339|   -6.029092|   -4.174030|   -4.161366|   -5.842788|
|         340|   -6.024743|   -4.179448|   -4.161997|   -5.847727|
|         341|   -6.020873|   -4.185343|   -4.162996|   -5.852598|
|         342|   -6.017570|   -4.191691|   -4.164580|   -5.857377|
|         343|   -6.014846|   -4.198402|   -4.166969|   -5.862018|
|         344|   -6.012659|   -4.205391|   -4.170101|   -5.866448|
|         345|   -6.010789|   -4.212500|   -4.173891|   -5.870557|
|         346|   -6.009058|   -4.219530|   -4.178067|   -5.874232|
|         347|   -6.007475|   -4.226330|   -4.179609|   -5.877430|
|         348|   -6.005745|   -4.232809|   -4.180089|   -5.879947|
|         349|   -6.004182|   -4.238915|   -4.180170|   -5.881659|
|         350|   -6.002748|   -4.244624|   -4.179946|   -5.881617|
|         351|   -6.001312|   -4.249890|   -4.179498|   -5.879850|
|         352|   -5.999727|   -4.254646|   -4.178801|   -5.876793|
|         353|   -5.998008|   -4.258878|   -4.177894|   -5.872847|
|         354|   -5.996205|   -4.262621|   -4.176830|   -5.869025|
|         355|   -5.994365|   -4.265882|   -4.175632|   -5.865028|
|         356|   -5.992502|   -4.268651|   -4.174333|   -5.860800|
|         357|   -5.990660|   -4.271038|   -4.172970|   -5.856344|
|         358|   -5.988885|   -4.273235|   -4.171644|   -5.851786|
|         359|   -5.987207|   -4.275336|   -4.170453|   -5.847236|
|         360|   -5.985640|   -4.277387|   -4.169476|   -5.842847|
|         361|   -5.984188|   -4.279377|   -4.168765|   -5.838698|
|         362|   -5.982840|   -4.281256|   -4.168293|   -5.834826|
|         363|   -5.981555|   -4.282917|   -4.168008|   -5.831267|
|         364|   -5.980303|   -4.284319|   -4.167837|   -5.828034|
|         365|   -5.979066|   -4.285475|   -4.167715|   -5.825099|
|         366|   -5.977839|   -4.286408|   -4.167618|   -5.822454|
|         367|   -5.976625|   -4.287154|   -4.167506|   -5.820100|
|         368|   -5.975453|   -4.287749|   -4.167397|   -5.818038|
|         369|   -5.974287|   -4.288217|   -4.167251|   -5.816284|
|         370|   -5.973103|   -4.288610|   -4.167001|   -5.814878|
|         371|   -5.971909|   -4.288976|   -4.166612|   -5.813908|
|         372|   -5.970864|   -4.289341|   -4.166308|   -5.813438|
|         373|   -5.970011|   -4.289747|   -4.166079|   -5.813518|
|         374|   -5.969386|   -4.290255|   -4.165894|   -5.814200|
|         375|   -5.969077|   -4.290950|   -4.165842|   -5.815408|
|         376|   -5.969107|   -4.291865|   -4.165974|   -5.817144|
|         377|   -5.969529|   -4.293000|   -4.166413|   -5.819345|
|         378|   -5.970315|   -4.294303|   -4.167198|   -5.821936|
|         379|   -5.971428|   -4.295672|   -4.168340|   -5.824799|
|         380|   -5.972819|   -4.297003|   -4.169810|   -5.827869|
|         381|   -5.974465|   -4.298152|   -4.171625|   -5.831041|
|         382|   -5.976348|   -4.298993|   -4.173802|   -5.834253|
|         383|   -5.978441|   -4.299448|   -4.176328|   -5.837416|
|         384|   -5.980650|   -4.299448|   -4.179070|   -5.840483|
|         385|   -5.983053|   -4.298957|   -4.182150|   -5.843418|
|         386|   -5.985587|   -4.297932|   -4.185453|   -5.846231|
|         387|   -5.988225|   -4.296354|   -4.188904|   -5.848944|
|         388|   -5.991008|   -4.294243|   -4.192559|   -5.851530|
|         389|   -5.993809|   -4.291678|   -4.196166|   -5.853937|
|         390|   -5.996703|   -4.288707|   -4.199773|   -5.856101|
|         391|   -5.999699|   -4.285385|   -4.203347|   -5.857982|
|         392|   -6.002764|   -4.281812|   -4.206852|   -5.859508|
|         393|   -6.005911|   -4.278131|   -4.210410|   -5.860612|
|         394|   -6.009069|   -4.274427|   -4.213913|   -5.861215|
|         395|   -6.012230|   -4.270838|   -4.217415|   -5.861263|
|         396|   -6.015361|   -4.267480|   -4.220951|   -5.860720|
|         397|   -6.018404|   -4.264477|   -4.224444|   -5.859574|
|         398|   -6.021362|   -4.261874|   -4.227835|   -5.857864|
|         399|   -6.024253|   -4.259650|   -4.231076|   -5.855710|
|         400|   -6.027118|   -4.257798|   -4.234074|   -5.853304|
|         401|   -6.030004|   -4.256171|   -4.233216|   -5.850871|
|         402|   -6.032402|   -4.254686|   -4.230130|   -5.848411|
|         403|   -6.034853|   -4.252986|   -4.226954|   -5.845968|
|         404|   -6.037596|   -4.250866|   -4.224711|   -5.843535|
|         405|   -6.040616|   -4.248274|   -4.223552|   -5.841089|
|         406|   -6.043805|   -4.245423|   -4.223640|   -5.838617|
|         407|   -6.047027|   -4.242598|   -4.224419|   -5.836102|
|         408|   -6.050216|   -4.239996|   -4.225673|   -5.833528|
|         409|   -6.053298|   -4.237568|   -4.227237|   -5.830809|
|         410|   -6.056274|   -4.235361|   -4.229602|   -5.827966|
|         411|   -6.059109|   -4.233394|   -4.232289|   -5.824979|
|         412|   -6.061908|   -4.231778|   -4.236065|   -5.821854|
|         413|   -6.064752|   -4.230353|   -4.240140|   -5.818558|
|         414|   -6.067762|   -4.229139|   -4.245343|   -5.814923|
|         415|   -6.070769|   -4.227751|   -4.250607|   -5.811131|
|         416|   -6.073835|   -4.226097|   -4.256307|   -5.807198|
|         417|   -6.077179|   -4.224078|   -4.262362|   -5.802922|
|         418|   -6.080256|   -4.221584|   -4.268459|   -5.798348|
|         419|   -6.083163|   -4.218596|   -4.274343|   -5.793568|
|         420|   -6.085688|   -4.215154|   -4.279497|   -5.788524|
|         421|   -6.088067|   -4.211179|   -4.283256|   -5.783329|
|         422|   -6.090144|   -4.206785|   -4.286612|   -5.777929|
|         423|   -6.092013|   -4.202015|   -4.289730|   -5.772383|
|         424|   -6.093543|   -4.196888|   -4.292574|   -5.766725|
|         425|   -6.094691|   -4.191371|   -4.294998|   -5.761022|
|         426|   -6.095413|   -4.185399|   -4.296736|   -5.755464|
|         427|   -6.095889|   -4.178929|   -4.297286|   -5.750183|
|         428|   -6.096313|   -4.172092|   -4.297245|   -5.745258|
|         429|   -6.096660|   -4.164977|   -4.296785|   -5.740811|
|         430|   -6.097020|   -4.157649|   -4.295852|   -5.736860|
|         431|   -6.097394|   -4.150186|   -4.294339|   -5.733381|
|         432|   -6.097737|   -4.142684|   -4.292191|   -5.730331|
|         433|   -6.098279|   -4.135236|   -4.289338|   -5.727568|
|         434|   -6.098871|   -4.127879|   -4.285734|   -5.724937|
|         435|   -6.099476|   -4.120648|   -4.281197|   -5.722288|
|         436|   -6.100091|   -4.113549|   -4.275238|   -5.719564|
|         437|   -6.101219|   -4.106734|   -4.268400|   -5.716538|
|         438|   -6.102365|   -4.100266|   -4.260995|   -5.713187|
|         439|   -6.103408|   -4.094175|   -4.253107|   -5.709445|
|         440|   -6.104197|   -4.088475|   -4.244860|   -5.705396|
|         441|   -6.104724|   -4.083191|   -4.236411|   -5.701170|
|         442|   -6.104905|   -4.078316|   -4.227806|   -5.696906|
|         443|   -6.105018|   -4.073765|   -4.219033|   -5.692692|
|         444|   -6.105194|   -4.069542|   -4.210119|   -5.688806|
|         445|   -6.105966|   -4.065723|   -4.201401|   -5.685303|
|         446|   -6.106986|   -4.062356|   -4.193292|   -5.682349|
|         447|   -6.108537|   -4.059336|   -4.186033|   -5.679977|
|         448|   -6.110785|   -4.056568|   -4.179582|   -5.678131|
|         449|   -6.113594|   -4.053858|   -4.173879|   -5.676757|
|         450|   -6.116784|   -4.051161|   -4.168758|   -5.675859|
|         451|   -6.120348|   -4.048406|   -4.163843|   -5.675496|
|         452|   -6.124704|   -4.045645|   -4.159433|   -5.675463|
|         453|   -6.128593|   -4.042873|   -4.155626|   -5.675716|
|         454|   -6.131703|   -4.040001|   -4.152504|   -5.676258|
|         455|   -6.134150|   -4.037049|   -4.150135|   -5.677130|
|         456|   -6.136279|   -4.034132|   -4.148808|   -5.678428|
|         457|   -6.139130|   -4.031514|   -4.149605|   -5.680032|
|         458|   -6.143906|   -4.029503|   -4.153114|   -5.681934|
|         459|   -6.152520|   -4.028107|   -4.159267|   -5.683910|
|         460|   -6.163900|   -4.028285|   -4.168182|   -5.685742|
|         461|   -6.178430|   -4.030126|   -4.179149|   -5.687344|
|         462|   -6.195185|   -4.032552|   -4.190527|   -5.688606|
|         463|   -6.211117|   -4.034399|   -4.200719|   -5.689470|
|         464|   -6.223948|   -4.035600|   -4.209347|   -5.689969|
|         465|   -6.234468|   -4.036363|   -4.216238|   -5.690139|
|         466|   -6.243580|   -4.036784|   -4.221548|   -5.689981|
|         467|   -6.251606|   -4.037050|   -4.225866|   -5.689465|
|         468|   -6.258095|   -4.037277|   -4.229754|   -5.688587|
|         469|   -6.263207|   -4.037507|   -4.233629|   -5.687360|
|         470|   -6.267528|   -4.037816|   -4.237775|   -5.685824|
|         471|   -6.271516|   -4.038217|   -4.242426|   -5.683991|
|         472|   -6.275036|   -4.038676|   -4.247448|   -5.681908|
|         473|   -6.278037|   -4.039088|   -4.252518|   -5.679627|
|         474|   -6.280514|   -4.039361|   -4.257319|   -5.677217|
|         475|   -6.282281|   -4.039446|   -4.261576|   -5.674765|
|         476|   -6.283094|   -4.039319|   -4.265145|   -5.672258|
|         477|   -6.282727|   -4.038981|   -4.268024|   -5.669637|
|         478|   -6.281119|   -4.038414|   -4.270016|   -5.666832|
|         479|   -6.278504|   -4.037548|   -4.270942|   -5.663920|
|         480|   -6.275241|   -4.036411|   -4.270887|   -5.660964|
|         481|   -6.270800|   -4.034994|   -4.269925|   -5.658263|
|         482|   -6.265105|   -4.033249|   -4.268118|   -5.655985|
|         483|   -6.259136|   -4.031274|   -4.265815|   -5.654082|
|         484|   -6.253129|   -4.029400|   -4.263094|   -5.652455|
|         485|   -6.247581|   -4.028042|   -4.259063|   -5.651064|
|         486|   -6.240443|   -4.027217|   -4.254531|   -5.649902|
|         487|   -6.233704|   -4.026331|   -4.253142|   -5.649013|
|         488|   -6.228540|   -4.025310|   -4.254035|   -5.648597|
|         489|   -6.225668|   -4.025035|   -4.255895|   -5.648691|
|         490|   -6.226037|   -4.026353|   -4.258382|   -5.649223|
|         491|   -6.226281|   -4.028787|   -4.261280|   -5.650241|
|         492|   -6.226942|   -4.031146|   -4.263927|   -5.651627|
|         493|   -6.227251|   -4.033541|   -4.265907|   -5.653171|
|         494|   -6.225953|   -4.036332|   -4.267369|   -5.654716|
|         495|   -6.222922|   -4.039464|   -4.267789|   -5.656269|
|         496|   -6.218110|   -4.042638|   -4.267325|   -5.657992|
|         497|   -6.212353|   -4.045546|   -4.265988|   -5.659986|
|         498|   -6.206950|   -4.048264|   -4.263817|   -5.662152|
|         499|   -6.201942|   -4.051012|   -4.261195|   -5.664241|
|         500|   -6.196970|   -4.053897|   -4.258784|   -5.666011|
+-----------------------------------------------------------------------+
|        File Writing Summary       |              Filename             |
+-----------------------------------------------------------------------+
|SU2 restart                        |restart_venturi_mixturedensity_30kW_fine_test.dat|
|                                   |                     (403.105 MB/s)|
|Paraview                           |flow_venturi_mixturedensity_30kW_fine_test_00000500.vtu|
|                                   |                     (5.41386 MB/s)|
|Paraview surface                   |surface_flow_venturi_mixturedensity_30kW_fine_test.vtu|
|                                   |                     (1.75046 MB/s)|
+-----------------------------------------------------------------------+
+----------------------------------------------------------------+
|  Inner_Iter|      rms[P]|      rms[U]|      rms[V]|      rms[c]|
+----------------------------------------------------------------+
|         501|   -6.191886|   -4.056872|   -4.256144|   -5.667428|
|         502|   -6.187549|   -4.059723|   -4.251947|   -5.668607|
|         503|   -6.184350|   -4.062249|   -4.247165|   -5.669677|
|         504|   -6.181503|   -4.064235|   -4.242322|   -5.670786|
|         505|   -6.178917|   -4.065895|   -4.237601|   -5.671968|
|         506|   -6.177074|   -4.067538|   -4.232992|   -5.673201|
|         507|   -6.176145|   -4.069449|   -4.228799|   -5.674466|
|         508|   -6.175649|   -4.071829|   -4.225271|   -5.675789|
|         509|   -6.174954|   -4.074753|   -4.222191|   -5.677198|
|         510|   -6.173712|   -4.078273|   -4.219154|   -5.678684|
|         511|   -6.171782|   -4.082393|   -4.215843|   -5.680185|
|         512|   -6.169236|   -4.087024|   -4.212060|   -5.681638|
|         513|   -6.166220|   -4.092019|   -4.207764|   -5.683009|
|         514|   -6.162901|   -4.097209|   -4.202999|   -5.684295|
|         515|   -6.159566|   -4.102402|   -4.197853|   -5.685500|
|         516|   -6.156376|   -4.107414|   -4.192534|   -5.686638|
|         517|   -6.153474|   -4.112089|   -4.187295|   -5.687723|
|         518|   -6.151034|   -4.116331|   -4.182341|   -5.688759|
|         519|   -6.149097|   -4.120082|   -4.177799|   -5.689751|
|         520|   -6.147575|   -4.123304|   -4.173714|   -5.690705|
|         521|   -6.146303|   -4.125942|   -4.170112|   -5.691625|
|         522|   -6.145133|   -4.127977|   -4.166979|   -5.692519|
|         523|   -6.143864|   -4.129414|   -4.164312|   -5.693395|
|         524|   -6.142315|   -4.130296|   -4.162120|   -5.694268|
|         525|   -6.140341|   -4.130716|   -4.160459|   -5.695151|
|         526|   -6.137830|   -4.130832|   -4.159344|   -5.696060|
|         527|   -6.134789|   -4.130828|   -4.158779|   -5.697004|
|         528|   -6.131335|   -4.130852|   -4.158724|   -5.697989|
|         529|   -6.127661|   -4.130969|   -4.159066|   -5.699014|
|         530|   -6.124017|   -4.131164|   -4.159699|   -5.700083|
|         531|   -6.120817|   -4.131312|   -4.160560|   -5.701205|
|         532|   -6.118564|   -4.131473|   -4.161461|   -5.702379|
|         533|   -6.117682|   -4.132262|   -4.162339|   -5.703602|
|         534|   -6.118475|   -4.134746|   -4.163064|   -5.704866|
|         535|   -6.120749|   -4.139854|   -4.163446|   -5.706172|
|         536|   -6.123701|   -4.146856|   -4.163798|   -5.707511|
|         537|   -6.126617|   -4.154748|   -4.164883|   -5.708888|
|         538|   -6.129106|   -4.162935|   -4.166845|   -5.710295|
|         539|   -6.131058|   -4.170632|   -4.169372|   -5.711719|
|         540|   -6.132541|   -4.177093|   -4.172166|   -5.713147|
|         541|   -6.133686|   -4.182124|   -4.175158|   -5.714567|
|         542|   -6.134604|   -4.186138|   -4.177924|   -5.715973|
|         543|   -6.135399|   -4.189638|   -4.180092|   -5.717354|
|         544|   -6.136113|   -4.192932|   -4.181637|   -5.718697|
|         545|   -6.136756|   -4.196162|   -4.182619|   -5.719993|
|         546|   -6.137330|   -4.199376|   -4.183166|   -5.721228|
|         547|   -6.137836|   -4.202643|   -4.183394|   -5.722398|
|         548|   -6.138277|   -4.205947|   -4.183420|   -5.723497|
|         549|   -6.138680|   -4.209256|   -4.183311|   -5.724527|
|         550|   -6.139062|   -4.212526|   -4.183129|   -5.725494|
|         551|   -6.139443|   -4.215721|   -4.182907|   -5.726406|
|         552|   -6.139839|   -4.218804|   -4.182667|   -5.727274|
|         553|   -6.140266|   -4.221733|   -4.182421|   -5.728111|
|         554|   -6.140734|   -4.224467|   -4.182180|   -5.728930|
|         555|   -6.141253|   -4.226966|   -4.181954|   -5.729745|
|         556|   -6.141832|   -4.229194|   -4.181756|   -5.730571|
|         557|   -6.142476|   -4.231129|   -4.181600|   -5.731419|
|         558|   -6.143189|   -4.232758|   -4.181493|   -5.732296|
|         559|   -6.143974|   -4.234072|   -4.181441|   -5.733211|
|         560|   -6.144838|   -4.235063|   -4.181452|   -5.734164|
|         561|   -6.145789|   -4.235733|   -4.181535|   -5.735155|
|         562|   -6.146834|   -4.236087|   -4.181701|   -5.736181|
|         563|   -6.147982|   -4.236137|   -4.181963|   -5.737237|
|         564|   -6.149238|   -4.235907|   -4.182331|   -5.738317|
|         565|   -6.150608|   -4.235425|   -4.182817|   -5.739418|
|         566|   -6.152092|   -4.234716|   -4.183430|   -5.740537|
|         567|   -6.153688|   -4.233806|   -4.184174|   -5.741676|
|         568|   -6.155391|   -4.232713|   -4.185045|   -5.742838|
|         569|   -6.157194|   -4.231449|   -4.186036|   -5.744029|
|         570|   -6.159090|   -4.230019|   -4.187143|   -5.745259|
|         571|   -6.161071|   -4.228430|   -4.188366|   -5.746538|
|         572|   -6.163137|   -4.226685|   -4.189707|   -5.747876|
|         573|   -6.165280|   -4.224787|   -4.191161|   -5.749283|
|         574|   -6.167498|   -4.222741|   -4.192720|   -5.750768|
|         575|   -6.169790|   -4.220548|   -4.194384|   -5.752339|
|         576|   -6.172161|   -4.218211|   -4.196158|   -5.754001|
|         577|   -6.174616|   -4.215736|   -4.198041|   -5.755758|
|         578|   -6.177163|   -4.213132|   -4.200020|   -5.757612|
|         579|   -6.179807|   -4.210416|   -4.202092|   -5.759562|
|         580|   -6.182553|   -4.207604|   -4.204278|   -5.761609|
|         581|   -6.185414|   -4.204717|   -4.206589|   -5.763751|
|         582|   -6.188393|   -4.201768|   -4.209028|   -5.765988|
|         583|   -6.191494|   -4.198767|   -4.211592|   -5.768318|
|         584|   -6.194720|   -4.195721|   -4.214284|   -5.770739|
|         585|   -6.198080|   -4.192636|   -4.217108|   -5.773251|
|         586|   -6.201576|   -4.189517|   -4.220062|   -5.775852|
|         587|   -6.205212|   -4.186368|   -4.223148|   -5.778541|
|         588|   -6.208986|   -4.183195|   -4.226362|   -5.781315|
|         589|   -6.212901|   -4.180007|   -4.229705|   -5.784172|
|         590|   -6.216957|   -4.176811|   -4.233171|   -5.787112|
|         591|   -6.221145|   -4.173613|   -4.236749|   -5.790130|
|         592|   -6.225455|   -4.170421|   -4.240434|   -5.793226|
|         593|   -6.229881|   -4.167241|   -4.244227|   -5.796397|
|         594|   -6.234421|   -4.164083|   -4.248139|   -5.799640|
|         595|   -6.239074|   -4.160952|   -4.252176|   -5.802952|
|         596|   -6.243844|   -4.157860|   -4.256349|   -5.806333|
|         597|   -6.248754|   -4.154803|   -4.260159|   -5.809775|
|         598|   -6.253709|   -4.151784|   -4.263760|   -5.813273|
|         599|   -6.258782|   -4.148812|   -4.267488|   -5.816825|
|         600|   -6.264043|   -4.145892|   -4.271482|   -5.820428|
|         601|   -6.269521|   -4.143024|   -4.275790|   -5.824081|
|         602|   -6.275212|   -4.140206|   -4.280405|   -5.827782|
|         603|   -6.281120|   -4.137440|   -4.285338|   -5.831530|
|         604|   -6.287259|   -4.134732|   -4.290605|   -5.835323|
|         605|   -6.293647|   -4.132089|   -4.296230|   -5.839161|
|         606|   -6.300306|   -4.129519|   -4.302233|   -5.843044|
|         607|   -6.307257|   -4.127028|   -4.308635|   -5.846970|
|         608|   -6.314531|   -4.124617|   -4.315466|   -5.850938|
|         609|   -6.322161|   -4.122286|   -4.322754|   -5.854949|
|         610|   -6.330163|   -4.120036|   -4.330502|   -5.859001|
|         611|   -6.338555|   -4.117870|   -4.338729|   -5.863095|
|         612|   -6.347360|   -4.115792|   -4.347462|   -5.867231|
|         613|   -6.356595|   -4.113807|   -4.356723|   -5.871408|
|         614|   -6.366277|   -4.111921|   -4.366520|   -5.875627|
|         615|   -6.376419|   -4.110135|   -4.376853|   -5.879887|
|         616|   -6.387028|   -4.108452|   -4.387719|   -5.884192|
|         617|   -6.398108|   -4.106875|   -4.399110|   -5.888540|
|         618|   -6.409653|   -4.105408|   -4.411007|   -5.892933|
|         619|   -6.421643|   -4.104058|   -4.423384|   -5.897372|
|         620|   -6.434058|   -4.102834|   -4.436215|   -5.901859|
|         621|   -6.446886|   -4.101746|   -4.449504|   -5.906396|
|         622|   -6.460076|   -4.100801|   -4.463189|   -5.910984|
|         623|   -6.473545|   -4.100005|   -4.477152|   -5.915623|
|         624|   -6.487214|   -4.099361|   -4.491307|   -5.920315|
|         625|   -6.500997|   -4.098868|   -4.505555|   -5.925061|
|         626|   -6.514790|   -4.098525|   -4.519776|   -5.929862|
|         627|   -6.528454|   -4.098328|   -4.533796|   -5.934719|
|         628|   -6.541837|   -4.098275|   -4.547425|   -5.939632|
|         629|   -6.554780|   -4.098362|   -4.560472|   -5.944602|
|         630|   -6.567097|   -4.098587|   -4.572731|   -5.949629|
|         631|   -6.578595|   -4.098944|   -4.584012|   -5.954712|
|         632|   -6.589083|   -4.099428|   -4.594142|   -5.959850|
|         633|   -6.598381|   -4.100030|   -4.602963|   -5.965042|
|         634|   -6.606324|   -4.100742|   -4.610331|   -5.970286|
|         635|   -6.612783|   -4.101553|   -4.616123|   -5.975581|
|         636|   -6.617665|   -4.102457|   -4.620247|   -5.980925|
|         637|   -6.620930|   -4.103445|   -4.622668|   -5.986314|
|         638|   -6.622613|   -4.104510|   -4.623398|   -5.991747|
|         639|   -6.622759|   -4.105650|   -4.622539|   -5.997219|
|         640|   -6.621482|   -4.106860|   -4.620252|   -6.002726|
|         641|   -6.618929|   -4.108136|   -4.616757|   -6.008264|
|         642|   -6.615268|   -4.109472|   -4.612278|   -6.013830|
|         643|   -6.610675|   -4.110861|   -4.607031|   -6.019420|
|         644|   -6.605331|   -4.112296|   -4.601219|   -6.025033|
|         645|   -6.599413|   -4.113768|   -4.595011|   -6.030667|
|         646|   -6.593091|   -4.115272|   -4.588546|   -6.036321|
|         647|   -6.586505|   -4.116803|   -4.581918|   -6.041990|
|         648|   -6.579768|   -4.118356|   -4.575209|   -6.047675|
|         649|   -6.572987|   -4.119931|   -4.568528|   -6.053376|
|         650|   -6.566245|   -4.121533|   -4.561985|   -6.059093|
|         651|   -6.559595|   -4.123167|   -4.555660|   -6.064825|
|         652|   -6.553055|   -4.124841|   -4.549599|   -6.070571|
|         653|   -6.546638|   -4.126563|   -4.543836|   -6.076330|
|         654|   -6.540343|   -4.128335|   -4.538383|   -6.082100|
|         655|   -6.534161|   -4.130162|   -4.533218|   -6.087879|
|         656|   -6.528080|   -4.132050|   -4.528313|   -6.093666|
|         657|   -6.522078|   -4.134002|   -4.523629|   -6.099460|
|         658|   -6.516129|   -4.136025|   -4.519119|   -6.105259|
|         659|   -6.510201|   -4.138125|   -4.514744|   -6.111063|
|         660|   -6.504266|   -4.140310|   -4.510475|   -6.116872|
|         661|   -6.498292|   -4.142581|   -4.506291|   -6.122684|
|         662|   -6.492236|   -4.144937|   -4.502158|   -6.128501|
|         663|   -6.486053|   -4.147378|   -4.498040|   -6.134323|
|         664|   -6.479710|   -4.149898|   -4.493925|   -6.140156|
|         665|   -6.473193|   -4.152496|   -4.489806|   -6.146002|
|         666|   -6.466496|   -4.155173|   -4.485673|   -6.151867|
|         667|   -6.459623|   -4.157934|   -4.481498|   -6.157753|
|         668|   -6.452576|   -4.160785|   -4.477245|   -6.163662|
|         669|   -6.445334|   -4.163731|   -4.472920|   -6.169597|
|         670|   -6.437927|   -4.166776|   -4.468549|   -6.175559|
|         671|   -6.430407|   -4.169921|   -4.464188|   -6.181547|
|         672|   -6.422776|   -4.173165|   -4.459834|   -6.187554|
|         673|   -6.415031|   -4.176508|   -4.455486|   -6.193573|
|         674|   -6.407180|   -4.179951|   -4.451189|   -6.199595|
|         675|   -6.399239|   -4.183494|   -4.446995|   -6.205607|
|         676|   -6.391229|   -4.187137|   -4.442929|   -6.211589|
|         677|   -6.383169|   -4.190876|   -4.438995|   -6.217518|
|         678|   -6.375074|   -4.194706|   -4.435186|   -6.223363|
|         679|   -6.366964|   -4.198621|   -4.431492|   -6.229091|
|         680|   -6.358866|   -4.202613|   -4.427910|   -6.234671|
|         681|   -6.350805|   -4.206680|   -4.424452|   -6.240061|
|         682|   -6.342795|   -4.210808|   -4.421141|   -6.245219|
|         683|   -6.334847|   -4.214979|   -4.418004|   -6.250105|
|         684|   -6.326981|   -4.219181|   -4.415080|   -6.254673|
|         685|   -6.319204|   -4.223394|   -4.412390|   -6.258882|
|         686|   -6.311517|   -4.227614|   -4.409925|   -6.262690|
|         687|   -6.303920|   -4.231848|   -4.407691|   -6.266051|
|         688|   -6.296422|   -4.236092|   -4.405712|   -6.268929|
|         689|   -6.289038|   -4.240346|   -4.404012|   -6.271280|
|         690|   -6.281763|   -4.244582|   -4.402605|   -6.273071|
|         691|   -6.274604|   -4.248761|   -4.401478|   -6.274271|
|         692|   -6.267628|   -4.252847|   -4.400230|   -6.274866|
|         693|   -6.260738|   -4.256851|   -4.399069|   -6.274833|
|         694|   -6.253973|   -4.260784|   -4.398146|   -6.274148|
|         695|   -6.247352|   -4.264643|   -4.397544|   -6.272793|
|         696|   -6.240875|   -4.268420|   -4.397298|   -6.270759|
|         697|   -6.234531|   -4.272107|   -4.397410|   -6.268044|
|         698|   -6.228315|   -4.275690|   -4.397809|   -6.264665|
|         699|   -6.222212|   -4.279156|   -4.398475|   -6.260651|
|         700|   -6.216214|   -4.282499|   -4.399548|   -6.256021|
|         701|   -6.210334|   -4.285722|   -4.401100|   -6.250807|
|         702|   -6.204575|   -4.288839|   -4.403189|   -6.245056|
|         703|   -6.198990|   -4.291870|   -4.405131|   -6.238896|
|         704|   -6.193456|   -4.294855|   -4.407121|   -6.232398|
|         705|   -6.187981|   -4.297820|   -4.409470|   -6.225629|
|         706|   -6.182594|   -4.300823|   -4.412278|   -6.218655|
|         707|   -6.177277|   -4.303933|   -4.415564|   -6.211594|
|         708|   -6.172013|   -4.307232|   -4.419356|   -6.204550|
|         709|   -6.166778|   -4.310803|   -4.423680|   -6.197682|
|         710|   -6.161815|   -4.314646|   -4.424789|   -6.191598|
|         711|   -6.156608|   -4.318879|   -4.423292|   -6.186405|
|         712|   -6.151237|   -4.323501|   -4.421219|   -6.181929|
|         713|   -6.146024|   -4.328436|   -4.419186|   -6.177989|
|         714|   -6.141039|   -4.333636|   -4.417399|   -6.174376|
|         715|   -6.136265|   -4.339037|   -4.415890|   -6.170916|
|         716|   -6.131681|   -4.344555|   -4.414680|   -6.167487|
|         717|   -6.127423|   -4.350020|   -4.410424|   -6.164260|
|         718|   -6.122979|   -4.355465|   -4.404848|   -6.161004|
|         719|   -6.118555|   -4.360812|   -4.399154|   -6.157582|
|         720|   -6.114291|   -4.366042|   -4.393691|   -6.153966|
|         721|   -6.110264|   -4.371200|   -4.388649|   -6.150163|
|         722|   -6.106464|   -4.376328|   -4.384014|   -6.146253|
|         723|   -6.102910|   -4.381464|   -4.379773|   -6.142337|
|         724|   -6.099554|   -4.386603|   -4.375837|   -6.138522|
|         725|   -6.096354|   -4.391744|   -4.372130|   -6.134877|
|         726|   -6.093316|   -4.396904|   -4.368655|   -6.131404|
|         727|   -6.090438|   -4.402105|   -4.365401|   -6.128090|
|         728|   -6.087687|   -4.407356|   -4.362272|   -6.124931|
|         729|   -6.085141|   -4.412678|   -4.359382|   -6.121901|
|         730|   -6.082736|   -4.418045|   -4.356599|   -6.118963|
|         731|   -6.080475|   -4.423427|   -4.353930|   -6.116093|
|         732|   -6.078349|   -4.428765|   -4.351360|   -6.113273|
|         733|   -6.076377|   -4.434021|   -4.348922|   -6.110482|
|         734|   -6.074562|   -4.439142|   -4.346632|   -6.107720|
|         735|   -6.072799|   -4.444035|   -4.344285|   -6.105031|
|         736|   -6.071250|   -4.448713|   -4.342196|   -6.102381|
|         737|   -6.069815|   -4.453134|   -4.340188|   -6.099702|
|         738|   -6.068522|   -4.457275|   -4.338308|   -6.096970|
|         739|   -6.067372|   -4.461099|   -4.336559|   -6.094191|
|         740|   -6.066371|   -4.464562|   -4.334944|   -6.091419|
|         741|   -6.065572|   -4.467627|   -4.333561|   -6.088669|
|         742|   -6.064881|   -4.470214|   -4.332225|   -6.085893|
|         743|   -6.064343|   -4.472281|   -4.331023|   -6.083033|
|         744|   -6.063960|   -4.473779|   -4.329956|   -6.080079|
|         745|   -6.063694|   -4.474687|   -4.328963|   -6.077068|
|         746|   -6.063561|   -4.475047|   -4.328105|   -6.074018|
|         747|   -6.063549|   -4.474923|   -4.327390|   -6.070926|
|         748|   -6.063636|   -4.474374|   -4.326774|   -6.067799|
|         749|   -6.063814|   -4.473430|   -4.326233|   -6.064672|
|         750|   -6.064121|   -4.472103|   -4.325851|   -6.061616|
|         751|   -6.064539|   -4.470394|   -4.325578|   -6.058711|
|         752|   -6.065061|   -4.468333|   -4.325372|   -6.055962|
|         753|   -6.065682|   -4.466009|   -4.325235|   -6.053285|
|         754|   -6.066418|   -4.463527|   -4.325168|   -6.050558|
|         755|   -6.067271|   -4.460962|   -4.325162|   -6.047685|
|         756|   -6.068253|   -4.458367|   -4.325240|   -6.044607|
|         757|   -6.069355|   -4.455827|   -4.325427|   -6.041305|
|         758|   -6.070543|   -4.453364|   -4.325709|   -6.037773|
|         759|   -6.071801|   -4.451004|   -4.326114|   -6.034031|
|         760|   -6.073109|   -4.448766|   -4.326642|   -6.030102|
|         761|   -6.074456|   -4.446725|   -4.327278|   -6.026007|
|         762|   -6.075830|   -4.444968|   -4.327996|   -6.021754|
|         763|   -6.077211|   -4.443535|   -4.328783|   -6.017346|
|         764|   -6.078584|   -4.442431|   -4.329661|   -6.012837|
|         765|   -6.079944|   -4.441592|   -4.330643|   -6.008330|
|         766|   -6.081278|   -4.440976|   -4.331730|   -6.003962|
|         767|   -6.082573|   -4.440560|   -4.332899|   -5.999857|
|         768|   -6.083820|   -4.440331|   -4.334124|   -5.996077|
|         769|   -6.085024|   -4.440280|   -4.335391|   -5.992616|
|         770|   -6.086188|   -4.440407|   -4.336708|   -5.989453|
|         771|   -6.087320|   -4.440689|   -4.338089|   -5.986567|
|         772|   -6.088414|   -4.441099|   -4.339556|   -5.983953|
|         773|   -6.089471|   -4.441626|   -4.341120|   -5.981609|
|         774|   -6.090488|   -4.442220|   -4.342769|   -5.979521|
|         775|   -6.091461|   -4.442847|   -4.344498|   -5.977657|
|         776|   -6.092415|   -4.443447|   -4.346297|   -5.976006|
|         777|   -6.093327|   -4.443946|   -4.348176|   -5.974554|
|         778|   -6.094207|   -4.444303|   -4.350143|   -5.973341|
|         779|   -6.095089|   -4.444498|   -4.352205|   -5.972412|
|         780|   -6.095967|   -4.444501|   -4.354360|   -5.971644|
|         781|   -6.096858|   -4.444278|   -4.356583|   -5.971076|
|         782|   -6.097715|   -4.443786|   -4.358858|   -5.970756|
|         783|   -6.098612|   -4.442982|   -4.361168|   -5.970645|
|         784|   -6.099588|   -4.441857|   -4.363494|   -5.970702|
|         785|   -6.100570|   -4.440356|   -4.365817|   -5.971070|
|         786|   -6.101643|   -4.438427|   -4.368128|   -5.971628|
|         787|   -6.102792|   -4.436054|   -4.370422|   -5.972600|
|         788|   -6.104048|   -4.433257|   -4.372706|   -5.973930|
|         789|   -6.105443|   -4.429974|   -4.374976|   -5.975498|
|         790|   -6.106974|   -4.426217|   -4.377241|   -5.977256|
|         791|   -6.108619|   -4.421997|   -4.379522|   -5.979385|
|         792|   -6.110452|   -4.417332|   -4.381849|   -5.981843|
|         793|   -6.112435|   -4.412240|   -4.384240|   -5.984733|
|         794|   -6.114651|   -4.406771|   -4.386720|   -5.988040|
|         795|   -6.117037|   -4.400946|   -4.389309|   -5.991983|
|         796|   -6.119713|   -4.394792|   -4.392015|   -5.996374|
|         797|   -6.122615|   -4.388407|   -4.394862|   -6.001292|
|         798|   -6.125769|   -4.381816|   -4.397880|   -6.006740|
|         799|   -6.129172|   -4.375082|   -4.401089|   -6.012733|
|         800|   -6.132819|   -4.368271|   -4.404498|   -6.019254|
|         801|   -6.136703|   -4.361428|   -4.408144|   -6.026282|
|         802|   -6.140815|   -4.354618|   -4.412051|   -6.033769|
|         803|   -6.145147|   -4.347889|   -4.416218|   -6.041631|
|         804|   -6.149682|   -4.341290|   -4.420648|   -6.049810|
|         805|   -6.154411|   -4.334855|   -4.425316|   -6.058201|
|         806|   -6.159318|   -4.328603|   -4.430180|   -6.066782|
|         807|   -6.164382|   -4.322556|   -4.435177|   -6.075458|
|         808|   -6.169587|   -4.316722|   -4.440231|   -6.084141|
|         809|   -6.174911|   -4.311117|   -4.445227|   -6.092764|
|         810|   -6.180330|   -4.305745|   -4.450062|   -6.101230|
|         811|   -6.185813|   -4.300593|   -4.454633|   -6.109423|
|         812|   -6.191328|   -4.295669|   -4.458816|   -6.117268|
|         813|   -6.196843|   -4.290972|   -4.462514|   -6.124745|
|         814|   -6.202329|   -4.286513|   -4.465612|   -6.131833|
|         815|   -6.207763|   -4.282306|   -4.468072|   -6.138519|
|         816|   -6.213142|   -4.278368|   -4.469894|   -6.144738|
|         817|   -6.218426|   -4.274712|   -4.471119|   -6.150515|
|         818|   -6.223579|   -4.271341|   -4.471818|   -6.155893|
|         819|   -6.228596|   -4.268265|   -4.472147|   -6.160893|
|         820|   -6.233480|   -4.265535|   -4.472220|   -6.165588|
|         821|   -6.238267|   -4.263110|   -4.472230|   -6.170023|
|         822|   -6.242989|   -4.260982|   -4.472189|   -6.174315|
|         823|   -6.247670|   -4.259128|   -4.471963|   -6.178307|
|         824|   -6.252322|   -4.257523|   -4.471388|   -6.181924|
|         825|   -6.256928|   -4.256119|   -4.470379|   -6.185131|
|         826|   -6.261474|   -4.254860|   -4.468841|   -6.187687|
|         827|   -6.265872|   -4.253699|   -4.466807|   -6.189472|
|         828|   -6.270083|   -4.252600|   -4.464349|   -6.190461|
|         829|   -6.274042|   -4.251541|   -4.461555|   -6.190556|
|         830|   -6.277723|   -4.250529|   -4.458452|   -6.189738|
|         831|   -6.281129|   -4.249567|   -4.455048|   -6.188040|
|         832|   -6.284269|   -4.248692|   -4.451359|   -6.185453|
|         833|   -6.287202|   -4.247932|   -4.447464|   -6.181975|
|         834|   -6.290017|   -4.247313|   -4.443438|   -6.177772|
|         835|   -6.292702|   -4.246806|   -4.439361|   -6.172748|
|         836|   -6.295340|   -4.246400|   -4.435371|   -6.166913|
|         837|   -6.297888|   -4.246106|   -4.431614|   -6.160365|
|         838|   -6.300322|   -4.245925|   -4.428179|   -6.153197|
|         839|   -6.302564|   -4.245851|   -4.425088|   -6.145505|
|         840|   -6.304613|   -4.245871|   -4.422263|   -6.137373|
|         841|   -6.306373|   -4.245961|   -4.419591|   -6.128940|
|         842|   -6.307760|   -4.246136|   -4.416925|   -6.120328|
|         843|   -6.308751|   -4.246339|   -4.414163|   -6.111759|
|         844|   -6.309425|   -4.246551|   -4.411216|   -6.103244|
|         845|   -6.309920|   -4.246667|   -4.408094|   -6.094667|
|         846|   -6.310186|   -4.246624|   -4.404874|   -6.086014|
|         847|   -6.310227|   -4.246374|   -4.401770|   -6.077546|
|         848|   -6.309995|   -4.246001|   -4.399000|   -6.069580|
|         849|   -6.309435|   -4.245627|   -4.396704|   -6.062252|
|         850|   -6.308991|   -4.245397|   -4.394785|   -6.055583|
|         851|   -6.309150|   -4.245438|   -4.392812|   -6.049541|
|         852|   -6.309766|   -4.245637|   -4.391115|   -6.044493|
|         853|   -6.310764|   -4.245773|   -4.390754|   -6.040620|
|         854|   -6.312526|   -4.245729|   -4.391896|   -6.037571|
|         855|   -6.316002|   -4.245534|   -4.394171|   -6.034737|
|         856|   -6.321076|   -4.245546|   -4.397006|   -6.031961|
|         857|   -6.326132|   -4.246042|   -4.400005|   -6.029203|
|         858|   -6.330581|   -4.246879|   -4.403116|   -6.026079|
|         859|   -6.334785|   -4.247648|   -4.406205|   -6.022339|
|         860|   -6.338136|   -4.248121|   -4.408851|   -6.018038|
|         861|   -6.340003|   -4.248355|   -4.410773|   -6.013437|
|         862|   -6.340409|   -4.248471|   -4.412067|   -6.009062|
|         863|   -6.339672|   -4.248492|   -4.412751|   -6.005569|
|         864|   -6.338480|   -4.248369|   -4.412618|   -6.003290|
|         865|   -6.337347|   -4.247995|   -4.411843|   -6.001810|
|         866|   -6.336599|   -4.247422|   -4.410661|   -6.000275|
|         867|   -6.336055|   -4.246917|   -4.409581|   -5.998177|
|         868|   -6.335631|   -4.246789|   -4.409109|   -5.995571|
|         869|   -6.335266|   -4.247277|   -4.409018|   -5.992947|
|         870|   -6.335101|   -4.248094|   -4.408778|   -5.990878|
|         871|   -6.335823|   -4.248913|   -4.408735|   -5.989665|
|         872|   -6.338831|   -4.249618|   -4.409768|   -5.989184|
|         873|   -6.344988|   -4.250231|   -4.412442|   -5.989248|
|         874|   -6.354213|   -4.250828|   -4.416874|   -5.989666|
|         875|   -6.366038|   -4.251502|   -4.422773|   -5.990171|
|         876|   -6.379898|   -4.252282|   -4.429591|   -5.990542|
|         877|   -6.395073|   -4.253183|   -4.436712|   -5.990643|
|         878|   -6.410784|   -4.254213|   -4.443198|   -5.990445|
|         879|   -6.427256|   -4.255322|   -4.449027|   -5.989967|
|         880|   -6.443838|   -4.256456|   -4.454517|   -5.989237|
|         881|   -6.458955|   -4.257565|   -4.459311|   -5.988315|
|         882|   -6.472221|   -4.258574|   -4.463418|   -5.987260|
|         883|   -6.483858|   -4.259430|   -4.467003|   -5.986128|
|         884|   -6.494016|   -4.260111|   -4.470153|   -5.984958|
|         885|   -6.502654|   -4.260636|   -4.472819|   -5.983780|
|         886|   -6.509864|   -4.261010|   -4.474896|   -5.982623|
|         887|   -6.515912|   -4.261308|   -4.476282|   -5.981506|
|         888|   -6.521159|   -4.261596|   -4.476839|   -5.980447|
|         889|   -6.525892|   -4.261963|   -4.476400|   -5.979454|
|         890|   -6.530227|   -4.262605|   -4.474869|   -5.978525|
|         891|   -6.534101|   -4.263542|   -4.472259|   -5.977654|
|         892|   -6.537122|   -4.264728|   -4.469128|   -5.976839|
|         893|   -6.538880|   -4.265937|   -4.465855|   -5.976083|
|         894|   -6.539115|   -4.267040|   -4.462624|   -5.975389|
|         895|   -6.537674|   -4.267947|   -4.459406|   -5.974748|
|         896|   -6.534498|   -4.268580|   -4.456062|   -5.974146|
|         897|   -6.529613|   -4.268864|   -4.452317|   -5.973562|
|         898|   -6.523065|   -4.268730|   -4.447824|   -5.972977|
|         899|   -6.514994|   -4.268133|   -4.442379|   -5.972372|
|         900|   -6.506474|   -4.267071|   -4.435695|   -5.971764|
|         901|   -6.497557|   -4.265678|   -4.427909|   -5.971136|
|         902|   -6.488576|   -4.264044|   -4.419413|   -5.970473|
|         903|   -6.479903|   -4.262308|   -4.410472|   -5.969768|
|         904|   -6.471658|   -4.260629|   -4.401311|   -5.969030|
|         905|   -6.463766|   -4.259145|   -4.392125|   -5.968257|
|         906|   -6.455839|   -4.257861|   -4.383152|   -5.967435|
|         907|   -6.447232|   -4.256733|   -4.374638|   -5.966542|
|         908|   -6.437106|   -4.255566|   -4.366772|   -5.965531|
|         909|   -6.425228|   -4.254120|   -4.359324|   -5.964476|
|         910|   -6.411135|   -4.252351|   -4.352309|   -5.963430|
|         911|   -6.394274|   -4.250201|   -4.346550|   -5.962316|
|         912|   -6.374841|   -4.247742|   -4.342347|   -5.961142|
|         913|   -6.353945|   -4.245502|   -4.339682|   -5.959909|
|         914|   -6.332733|   -4.244000|   -4.338749|   -5.958678|
|         915|   -6.312509|   -4.243622|   -4.339722|   -5.957489|
|         916|   -6.294431|   -4.244528|   -4.342585|   -5.956331|
|         917|   -6.279323|   -4.246593|   -4.347091|   -5.955142|
|         918|   -6.267861|   -4.249544|   -4.352599|   -5.953908|
|         919|   -6.261356|   -4.253287|   -4.358260|   -5.952657|
|         920|   -6.260816|   -4.258834|   -4.363090|   -5.951411|
|         921|   -6.266590|   -4.267460|   -4.366335|   -5.950186|
|         922|   -6.274867|   -4.279695|   -4.367761|   -5.949180|
|         923|   -6.280655|   -4.292898|   -4.370429|   -5.948515|
|         924|   -6.283191|   -4.305019|   -4.376351|   -5.948088|
|         925|   -6.282975|   -4.315099|   -4.384154|   -5.947750|
|         926|   -6.281000|   -4.322892|   -4.392361|   -5.947383|
|         927|   -6.277886|   -4.329011|   -4.400528|   -5.946941|
|         928|   -6.274512|   -4.334355|   -4.407913|   -5.946406|
|         929|   -6.271053|   -4.339382|   -4.413686|   -5.945759|
|         930|   -6.267513|   -4.344180|   -4.417957|   -5.945007|
|         931|   -6.263812|   -4.349059|   -4.421093|   -5.944169|
|         932|   -6.259971|   -4.354036|   -4.423374|   -5.943256|
|         933|   -6.256141|   -4.359125|   -4.424947|   -5.942292|
|         934|   -6.252419|   -4.364350|   -4.425894|   -5.941312|
|         935|   -6.248891|   -4.369723|   -4.426280|   -5.940352|
|         936|   -6.245647|   -4.375199|   -4.426176|   -5.939444|
|         937|   -6.242765|   -4.380682|   -4.425674|   -5.938608|
|         938|   -6.240312|   -4.386064|   -4.424882|   -5.937851|
|         939|   -6.238318|   -4.391250|   -4.423875|   -5.937173|
|         940|   -6.236758|   -4.396154|   -4.422748|   -5.936577|
|         941|   -6.235554|   -4.400710|   -4.421511|   -5.936057|
|         942|   -6.234608|   -4.404890|   -4.420170|   -5.935616|
|         943|   -6.233811|   -4.408661|   -4.418687|   -5.935256|
|         944|   -6.233080|   -4.411996|   -4.417001|   -5.934981|
|         945|   -6.232375|   -4.414891|   -4.415067|   -5.934790|
|         946|   -6.231672|   -4.417357|   -4.412883|   -5.934676|
|         947|   -6.230961|   -4.419420|   -4.410440|   -5.934623|
|         948|   -6.230236|   -4.421121|   -4.407735|   -5.934610|
|         949|   -6.229493|   -4.422517|   -4.404789|   -5.934618|
|         950|   -6.228722|   -4.423673|   -4.401631|   -5.934625|
|         951|   -6.227912|   -4.424648|   -4.398284|   -5.934615|
|         952|   -6.227055|   -4.425504|   -4.394760|   -5.934574|
|         953|   -6.226149|   -4.426314|   -4.391061|   -5.934491|
|         954|   -6.225187|   -4.427104|   -4.387178|   -5.934357|
|         955|   -6.224198|   -4.427874|   -4.383101|   -5.934164|
|         956|   -6.223204|   -4.428617|   -4.378831|   -5.933914|
|         957|   -6.222209|   -4.429335|   -4.374396|   -5.933610|
|         958|   -6.221226|   -4.430063|   -4.369811|   -5.933253|
|         959|   -6.220280|   -4.430807|   -4.365106|   -5.932841|
|         960|   -6.219389|   -4.431566|   -4.360303|   -5.932373|
|         961|   -6.218561|   -4.432347|   -4.355416|   -5.931853|
|         962|   -6.217797|   -4.433160|   -4.350456|   -5.931284|
|         963|   -6.217100|   -4.433992|   -4.345445|   -5.930667|
|         964|   -6.216468|   -4.434826|   -4.340420|   -5.930008|
[...]
|        8840|   -9.875104|   -7.446222|   -8.151396|   -7.027327|
|        8841|   -9.883646|   -7.446143|   -8.156921|   -7.027329|
|        8842|   -9.891860|   -7.446108|   -8.162197|   -7.027332|
|        8843|   -9.899694|   -7.446116|   -8.167204|   -7.027335|
|        8844|   -9.907096|   -7.446167|   -8.171918|   -7.027338|
|        8845|   -9.914012|   -7.446261|   -8.176319|   -7.027340|
|        8846|   -9.920386|   -7.446398|   -8.180386|   -7.027343|
|        8847|   -9.926166|   -7.446578|   -8.184099|   -7.027346|
|        8848|   -9.931301|   -7.446800|   -8.187440|   -7.027349|
|        8849|   -9.935743|   -7.447066|   -8.190392|   -7.027352|
|        8850|   -9.939450|   -7.447375|   -8.192940|   -7.027356|
|        8851|   -9.942387|   -7.447727|   -8.195071|   -7.027359|
|        8852|   -9.944524|   -7.448122|   -8.196775|   -7.027362|
|        8853|   -9.945843|   -7.448559|   -8.198044|   -7.027365|
|        8854|   -9.946335|   -7.449040|   -8.198873|   -7.027369|
|        8855|   -9.945997|   -7.449563|   -8.199259|   -7.027372|
|        8856|   -9.944842|   -7.450129|   -8.199203|   -7.027375|
|        8857|   -9.942885|   -7.450739|   -8.198706|   -7.027379|
|        8858|   -9.940158|   -7.451391|   -8.197778|   -7.027383|
|        8859|   -9.936692|   -7.452087|   -8.196423|   -7.027386|
|        8860|   -9.932533|   -7.452826|   -8.194657|   -7.027390|
|        8861|   -9.927726|   -7.453607|   -8.192491|   -7.027394|
|        8862|   -9.922322|   -7.454432|   -8.189940|   -7.027398|
|        8863|   -9.916377|   -7.455301|   -8.187028|   -7.027401|
|        8864|   -9.909939|   -7.456212|   -8.183765|   -7.027405|
|        8865|   -9.903065|   -7.457167|   -8.180173|   -7.027409|
|        8866|   -9.895812|   -7.458166|   -8.176283|   -7.027413|
|        8867|   -9.888225|   -7.459208|   -8.172102|   -7.027418|
|        8868|   -9.880358|   -7.460294|   -8.167665|   -7.027422|
|        8869|   -9.872255|   -7.461423|   -8.162988|   -7.027426|
|        8870|   -9.863957|   -7.462596|   -8.158091|   -7.027430|
|        8871|   -9.855506|   -7.463814|   -8.152998|   -7.027435|
|        8872|   -9.846936|   -7.465075|   -8.147730|   -7.027439|
|        8873|   -9.838281|   -7.466381|   -8.142306|   -7.027443|
|        8874|   -9.829570|   -7.467730|   -8.136746|   -7.027448|
|        8875|   -9.820829|   -7.469125|   -8.131068|   -7.027453|
|        8876|   -9.812080|   -7.470563|   -8.125289|   -7.027457|
|        8877|   -9.803345|   -7.472047|   -8.119425|   -7.027462|
|        8878|   -9.794641|   -7.473575|   -8.113491|   -7.027467|
|        8879|   -9.785983|   -7.475149|   -8.107502|   -7.027471|
|        8880|   -9.777386|   -7.476767|   -8.101471|   -7.027476|
|        8881|   -9.768862|   -7.478431|   -8.095411|   -7.027481|
|        8882|   -9.760419|   -7.480140|   -8.089334|   -7.027486|
|        8883|   -9.752068|   -7.481895|   -8.083248|   -7.027491|
|        8884|   -9.743814|   -7.483696|   -8.077164|   -7.027496|
|        8885|   -9.735665|   -7.485542|   -8.071091|   -7.027501|
|        8886|   -9.727624|   -7.487435|   -8.065037|   -7.027507|
|        8887|   -9.719697|   -7.489374|   -8.059008|   -7.027512|
|        8888|   -9.711885|   -7.491360|   -8.053011|   -7.027517|
|        8889|   -9.704192|   -7.493393|   -8.047053|   -7.027523|
|        8890|   -9.696620|   -7.495473|   -8.041139|   -7.027528|
|        8891|   -9.689169|   -7.497600|   -8.035273|   -7.027533|
|        8892|   -9.681841|   -7.499774|   -8.029460|   -7.027539|
|        8893|   -9.674636|   -7.501996|   -8.023703|   -7.027544|
|        8894|   -9.667555|   -7.504266|   -8.018006|   -7.027550|
|        8895|   -9.660597|   -7.506584|   -8.012371|   -7.027556|
|        8896|   -9.653761|   -7.508951|   -8.006802|   -7.027561|
|        8897|   -9.647047|   -7.511366|   -8.001300|   -7.027567|
|        8898|   -9.640454|   -7.513830|   -7.995867|   -7.027573|
|        8899|   -9.633982|   -7.516343|   -7.990505|   -7.027579|
|        8900|   -9.627629|   -7.518905|   -7.985215|   -7.027584|
|        8901|   -9.621393|   -7.521517|   -7.979998|   -7.027590|
|        8902|   -9.615273|   -7.524179|   -7.974855|   -7.027596|
|        8903|   -9.609269|   -7.526891|   -7.969787|   -7.027602|
|        8904|   -9.603379|   -7.529653|   -7.964795|   -7.027608|
|        8905|   -9.597601|   -7.532466|   -7.959880|   -7.027614|
|        8906|   -9.591934|   -7.535330|   -7.955041|   -7.027620|
|        8907|   -9.586375|   -7.538246|   -7.950278|   -7.027626|
|        8908|   -9.580925|   -7.541212|   -7.945591|   -7.027633|
|        8909|   -9.575580|   -7.544231|   -7.940980|   -7.027639|
|        8910|   -9.570340|   -7.547301|   -7.936444|   -7.027645|
|        8911|   -9.565203|   -7.550424|   -7.931985|   -7.027651|
|        8912|   -9.560167|   -7.553600|   -7.927601|   -7.027657|
|        8913|   -9.555232|   -7.556828|   -7.923292|   -7.027664|
|        8914|   -9.550394|   -7.560109|   -7.919058|   -7.027670|
|        8915|   -9.545654|   -7.563444|   -7.914899|   -7.027676|
|        8916|   -9.541009|   -7.566832|   -7.910815|   -7.027682|
|        8917|   -9.536459|   -7.570274|   -7.906805|   -7.027689|
|        8918|   -9.532001|   -7.573770|   -7.902869|   -7.027695|
|        8919|   -9.527635|   -7.577320|   -7.899007|   -7.027702|
|        8920|   -9.523359|   -7.580925|   -7.895220|   -7.027708|
|        8921|   -9.519171|   -7.584585|   -7.891505|   -7.027714|
|        8922|   -9.515071|   -7.588300|   -7.887860|   -7.027721|
|        8923|   -9.511055|   -7.592070|   -7.884284|   -7.027727|
|        8924|   -9.507125|   -7.595895|   -7.880776|   -7.027733|
|        8925|   -9.503277|   -7.599776|   -7.877338|   -7.027740|
|        8926|   -9.499512|   -7.603712|   -7.873968|   -7.027746|
|        8927|   -9.495828|   -7.607705|   -7.870667|   -7.027753|
|        8928|   -9.492224|   -7.611753|   -7.867434|   -7.027759|
|        8929|   -9.488699|   -7.615857|   -7.864268|   -7.027766|
|        8930|   -9.485253|   -7.620016|   -7.861169|   -7.027772|
|        8931|   -9.481883|   -7.624232|   -7.858137|   -7.027778|
|        8932|   -9.478588|   -7.628504|   -7.855170|   -7.027785|
|        8933|   -9.475369|   -7.632832|   -7.852269|   -7.027791|
|        8934|   -9.472223|   -7.637215|   -7.849432|   -7.027798|
|        8935|   -9.469150|   -7.641654|   -7.846658|   -7.027804|
|        8936|   -9.466149|   -7.646149|   -7.843948|   -7.027810|
|        8937|   -9.463219|   -7.650699|   -7.841301|   -7.027817|
|        8938|   -9.460360|   -7.655304|   -7.838716|   -7.027823|
|        8939|   -9.457569|   -7.659963|   -7.836192|   -7.027830|
|        8940|   -9.454848|   -7.664677|   -7.833730|   -7.027836|
|        8941|   -9.452194|   -7.669444|   -7.831328|   -7.027842|
|        8942|   -9.449607|   -7.674265|   -7.828986|   -7.027848|
|        8943|   -9.447086|   -7.679138|   -7.826703|   -7.027855|
|        8944|   -9.444631|   -7.684062|   -7.824480|   -7.027861|
|        8945|   -9.442240|   -7.689037|   -7.822315|   -7.027867|
|        8946|   -9.439914|   -7.694062|   -7.820207|   -7.027873|
|        8947|   -9.437651|   -7.699136|   -7.818157|   -7.027880|
|        8948|   -9.435451|   -7.704257|   -7.816163|   -7.027886|
|        8949|   -9.433312|   -7.709424|   -7.814226|   -7.027892|
|        8950|   -9.431236|   -7.714635|   -7.812344|   -7.027898|
|        8951|   -9.429220|   -7.719889|   -7.810517|   -7.027904|
|        8952|   -9.427265|   -7.725184|   -7.808745|   -7.027910|
|        8953|   -9.425369|   -7.730518|   -7.807027|   -7.027916|
|        8954|   -9.423533|   -7.735889|   -7.805364|   -7.027922|
|        8955|   -9.421756|   -7.741293|   -7.803756|   -7.027928|
|        8956|   -9.420038|   -7.746729|   -7.802201|   -7.027934|
|        8957|   -9.418377|   -7.752194|   -7.800701|   -7.027940|
|        8958|   -9.416774|   -7.757683|   -7.799254|   -7.027946|
|        8959|   -9.415229|   -7.763195|   -7.797860|   -7.027951|
|        8960|   -9.413739|   -7.768725|   -7.796518|   -7.027957|
|        8961|   -9.412306|   -7.774268|   -7.795228|   -7.027963|
|        8962|   -9.410928|   -7.779822|   -7.793988|   -7.027968|
|        8963|   -9.409605|   -7.785380|   -7.792798|   -7.027974|
|        8964|   -9.408337|   -7.790938|   -7.791657|   -7.027980|
|        8965|   -9.407123|   -7.796490|   -7.790565|   -7.027985|
|        8966|   -9.405963|   -7.802030|   -7.789523|   -7.027991|
|        8967|   -9.404857|   -7.807553|   -7.788530|   -7.027996|
|        8968|   -9.403804|   -7.813051|   -7.787586|   -7.028001|
|        8969|   -9.402804|   -7.818518|   -7.786692|   -7.028007|
|        8970|   -9.401858|   -7.823945|   -7.785846|   -7.028012|
|        8971|   -9.400964|   -7.829325|   -7.785049|   -7.028017|
|        8972|   -9.400122|   -7.834650|   -7.784300|   -7.028023|
|        8973|   -9.399333|   -7.839910|   -7.783599|   -7.028028|
|        8974|   -9.398595|   -7.845097|   -7.782946|   -7.028033|
|        8975|   -9.397909|   -7.850201|   -7.782341|   -7.028038|
|        8976|   -9.397274|   -7.855213|   -7.781783|   -7.028043|
|        8977|   -9.396690|   -7.860120|   -7.781272|   -7.028048|
|        8978|   -9.396157|   -7.864914|   -7.780808|   -7.028053|
|        8979|   -9.395674|   -7.869583|   -7.780390|   -7.028057|
|        8980|   -9.395242|   -7.874116|   -7.780019|   -7.028062|
|        8981|   -9.394861|   -7.878502|   -7.779695|   -7.028067|
|        8982|   -9.394529|   -7.882729|   -7.779417|   -7.028072|
|        8983|   -9.394248|   -7.886786|   -7.779185|   -7.028076|
|        8984|   -9.394017|   -7.890662|   -7.778999|   -7.028081|
|        8985|   -9.393835|   -7.894344|   -7.778859|   -7.028085|
|        8986|   -9.393703|   -7.897823|   -7.778765|   -7.028090|
|        8987|   -9.393620|   -7.901087|   -7.778717|   -7.028094|
|        8988|   -9.393587|   -7.904127|   -7.778714|   -7.028098|
|        8989|   -9.393603|   -7.906932|   -7.778756|   -7.028103|
|        8990|   -9.393668|   -7.909494|   -7.778844|   -7.028107|
|        8991|   -9.393782|   -7.911804|   -7.778978|   -7.028111|
|        8992|   -9.393946|   -7.913854|   -7.779156|   -7.028115|
|        8993|   -9.394158|   -7.915639|   -7.779379|   -7.028119|
|        8994|   -9.394419|   -7.917153|   -7.779648|   -7.028123|
|        8995|   -9.394729|   -7.918391|   -7.779961|   -7.028127|
|        8996|   -9.395088|   -7.919350|   -7.780319|   -7.028131|
|        8997|   -9.395496|   -7.920028|   -7.780721|   -7.028134|
|        8998|   -9.395952|   -7.920424|   -7.781169|   -7.028138|
|        8999|   -9.396458|   -7.920539|   -7.781661|   -7.028142|
|        9000|   -9.397012|   -7.920374|   -7.782198|   -7.028145|
+-----------------------------------------------------------------------+
|        File Writing Summary       |              Filename             |
+-----------------------------------------------------------------------+
|SU2 restart                        |restart_venturi_mixturedensity_30kW_fine_test.dat|
|                                   |                     (368.684 MB/s)|
|Paraview                           |flow_venturi_mixturedensity_30kW_fine_test_00009000.vtu|
|                                   |                     (5.45121 MB/s)|
|Paraview surface                   |surface_flow_venturi_mixturedensity_30kW_fine_test.vtu|
|                                   |                     (1.57623 MB/s)|
+-----------------------------------------------------------------------+
+----------------------------------------------------------------+
|  Inner_Iter|      rms[P]|      rms[U]|      rms[V]|      rms[c]|
+----------------------------------------------------------------+
|        9001|   -9.397615|   -7.919932|   -7.782781|   -7.028149|
|        9002|   -9.398266|   -7.919217|   -7.783408|   -7.028152|
|        9003|   -9.398967|   -7.918235|   -7.784080|   -7.028156|
|        9004|   -9.399717|   -7.916990|   -7.784798|   -7.028159|
|        9005|   -9.400516|   -7.915491|   -7.785560|   -7.028162|
|        9006|   -9.401363|   -7.913746|   -7.786368|   -7.028165|
|        9007|   -9.402260|   -7.911763|   -7.787220|   -7.028169|
|        9008|   -9.403205|   -7.909551|   -7.788117|   -7.028172|
|        9009|   -9.404200|   -7.907122|   -7.789059|   -7.028175|
|        9010|   -9.405244|   -7.904485|   -7.790045|   -7.028178|
|        9011|   -9.406338|   -7.901651|   -7.791077|   -7.028181|
|        9012|   -9.407481|   -7.898631|   -7.792153|   -7.028183|
|        9013|   -9.408673|   -7.895438|   -7.793274|   -7.028186|
|        9014|   -9.409916|   -7.892081|   -7.794441|   -7.028189|
|        9015|   -9.411208|   -7.888574|   -7.795653|   -7.028191|
|        9016|   -9.412551|   -7.884926|   -7.796911|   -7.028194|
|        9017|   -9.413943|   -7.881149|   -7.798214|   -7.028196|
|        9018|   -9.415387|   -7.877255|   -7.799563|   -7.028199|
|        9019|   -9.416880|   -7.873254|   -7.800959|   -7.028201|
|        9020|   -9.418425|   -7.869156|   -7.802400|   -7.028203|
|        9021|   -9.420021|   -7.864971|   -7.803888|   -7.028206|
|        9022|   -9.421668|   -7.860709|   -7.805422|   -7.028208|
|        9023|   -9.423366|   -7.856380|   -7.807003|   -7.028210|
|        9024|   -9.425117|   -7.851993|   -7.808631|   -7.028212|
|        9025|   -9.426919|   -7.847555|   -7.810306|   -7.028214|
|        9026|   -9.428773|   -7.843075|   -7.812028|   -7.028216|
|        9027|   -9.430680|   -7.838561|   -7.813798|   -7.028218|
|        9028|   -9.432640|   -7.834020|   -7.815615|   -7.028220|
|        9029|   -9.434653|   -7.829458|   -7.817480|   -7.028221|
|        9030|   -9.436720|   -7.824882|   -7.819393|   -7.028223|
|        9031|   -9.438840|   -7.820298|   -7.821355|   -7.028224|
|        9032|   -9.441014|   -7.815712|   -7.823365|   -7.028226|
|        9033|   -9.443243|   -7.811129|   -7.825424|   -7.028227|
|        9034|   -9.445526|   -7.806553|   -7.827532|   -7.028229|
|        9035|   -9.447865|   -7.801989|   -7.829690|   -7.028230|
|        9036|   -9.450259|   -7.797442|   -7.831897|   -7.028231|
|        9037|   -9.452709|   -7.792915|   -7.834154|   -7.028233|
|        9038|   -9.455216|   -7.788412|   -7.836461|   -7.028234|
|        9039|   -9.457780|   -7.783935|   -7.838820|   -7.028235|
|        9040|   -9.460400|   -7.779489|   -7.841229|   -7.028236|
|        9041|   -9.463079|   -7.775076|   -7.843689|   -7.028237|
|        9042|   -9.465816|   -7.770698|   -7.846201|   -7.028238|
|        9043|   -9.468611|   -7.766357|   -7.848764|   -7.028239|
|        9044|   -9.471466|   -7.762057|   -7.851380|   -7.028239|
|        9045|   -9.474381|   -7.757798|   -7.854049|   -7.028240|
|        9046|   -9.477356|   -7.753582|   -7.856771|   -7.028241|
|        9047|   -9.480392|   -7.749412|   -7.859547|   -7.028241|
|        9048|   -9.483489|   -7.745288|   -7.862376|   -7.028242|
|        9049|   -9.486648|   -7.741211|   -7.865260|   -7.028242|
|        9050|   -9.489870|   -7.737184|   -7.868200|   -7.028243|
|        9051|   -9.493156|   -7.733206|   -7.871194|   -7.028243|
|        9052|   -9.496505|   -7.729279|   -7.874244|   -7.028243|
|        9053|   -9.499919|   -7.725404|   -7.877350|   -7.028244|
|        9054|   -9.503398|   -7.721581|   -7.880513|   -7.028244|
|        9055|   -9.506943|   -7.717811|   -7.883732|   -7.028244|
|        9056|   -9.510555|   -7.714094|   -7.887009|   -7.028244|
|        9057|   -9.514235|   -7.710432|   -7.890344|   -7.028244|
|        9058|   -9.517982|   -7.706823|   -7.893737|   -7.028244|
|        9059|   -9.521799|   -7.703269|   -7.897190|   -7.028244|
|        9060|   -9.525686|   -7.699770|   -7.900701|   -7.028244|
|        9061|   -9.529643|   -7.696327|   -7.904273|   -7.028243|
|        9062|   -9.533672|   -7.692938|   -7.907906|   -7.028243|
|        9063|   -9.537774|   -7.689604|   -7.911599|   -7.028243|
|        9064|   -9.541949|   -7.686326|   -7.915355|   -7.028242|
|        9065|   -9.546199|   -7.683104|   -7.919173|   -7.028242|
|        9066|   -9.550525|   -7.679936|   -7.923054|   -7.028241|
|        9067|   -9.554926|   -7.676824|   -7.926998|   -7.028241|
|        9068|   -9.559406|   -7.673767|   -7.931007|   -7.028240|
|        9069|   -9.563963|   -7.670766|   -7.935080|   -7.028239|
|        9070|   -9.568601|   -7.667819|   -7.939219|   -7.028239|
|        9071|   -9.573319|   -7.664928|   -7.943423|   -7.028238|
|        9072|   -9.578119|   -7.662091|   -7.947694|   -7.028237|
|        9073|   -9.583003|   -7.659309|   -7.952032|   -7.028236|
|        9074|   -9.587970|   -7.656581|   -7.956437|   -7.028235|
|        9075|   -9.593024|   -7.653907|   -7.960910|   -7.028234|
|        9076|   -9.598164|   -7.651287|   -7.965452|   -7.028233|
|        9077|   -9.603392|   -7.648721|   -7.970064|   -7.028232|
|        9078|   -9.608709|   -7.646209|   -7.974745|   -7.028231|
|        9079|   -9.614118|   -7.643750|   -7.979496|   -7.028229|
|        9080|   -9.619618|   -7.641343|   -7.984318|   -7.028228|
|        9081|   -9.625212|   -7.638990|   -7.989212|   -7.028227|
|        9082|   -9.630901|   -7.636689|   -7.994177|   -7.028225|
|        9083|   -9.636686|   -7.634440|   -7.999214|   -7.028224|
|        9084|   -9.642569|   -7.632243|   -8.004323|   -7.028222|
|        9085|   -9.648551|   -7.630098|   -8.009506|   -7.028221|
|        9086|   -9.654634|   -7.628004|   -8.014762|   -7.028219|
|        9087|   -9.660820|   -7.625962|   -8.020091|   -7.028218|
|        9088|   -9.667109|   -7.623970|   -8.025494|   -7.028216|
|        9089|   -9.673503|   -7.622029|   -8.030970|   -7.028214|
|        9090|   -9.680004|   -7.620138|   -8.036521|   -7.028213|
|        9091|   -9.686613|   -7.618297|   -8.042146|   -7.028211|
|        9092|   -9.693332|   -7.616506|   -8.047844|   -7.028209|
|        9093|   -9.700162|   -7.614764|   -8.053616|   -7.028207|
|        9094|   -9.707105|   -7.613071|   -8.059462|   -7.028205|
|        9095|   -9.714161|   -7.611428|   -8.065381|   -7.028203|
|        9096|   -9.721333|   -7.609833|   -8.071371|   -7.028201|
|        9097|   -9.728621|   -7.608287|   -8.077434|   -7.028199|
|        9098|   -9.736026|   -7.606789|   -8.083567|   -7.028197|
|        9099|   -9.743550|   -7.605338|   -8.089770|   -7.028194|
|        9100|   -9.751193|   -7.603936|   -8.096042|   -7.028192|
|        9101|   -9.758956|   -7.602581|   -8.102381|   -7.028190|
|        9102|   -9.766840|   -7.601273|   -8.108785|   -7.028188|
|        9103|   -9.774844|   -7.600013|   -8.115253|   -7.028185|
|        9104|   -9.782969|   -7.598799|   -8.121782|   -7.028183|
|        9105|   -9.791215|   -7.597632|   -8.128370|   -7.028180|
|        9106|   -9.799581|   -7.596511|   -8.135013|   -7.028178|
|        9107|   -9.808065|   -7.595437|   -8.141709|   -7.028175|
|        9108|   -9.816667|   -7.594408|   -8.148453|   -7.028173|
|        9109|   -9.825384|   -7.593425|   -8.155241|   -7.028170|
|        9110|   -9.834213|   -7.592488|   -8.162068|   -7.028168|
|        9111|   -9.843152|   -7.591597|   -8.168932|   -7.028165|
|        9112|   -9.852195|   -7.590751|   -8.175821|   -7.028162|
|        9113|   -9.861337|   -7.589949|   -8.182733|   -7.028159|
|        9114|   -9.870573|   -7.589193|   -8.189659|   -7.028157|
|        9115|   -9.879894|   -7.588482|   -8.196591|   -7.028154|
|        9116|   -9.889293|   -7.587815|   -8.203520|   -7.028151|
|        9117|   -9.898758|   -7.587193|   -8.210438|   -7.028148|
|        9118|   -9.908277|   -7.586615|   -8.217332|   -7.028145|
|        9119|   -9.917837|   -7.586081|   -8.224192|   -7.028142|
|        9120|   -9.927421|   -7.585592|   -8.231005|   -7.028139|
|        9121|   -9.937012|   -7.585146|   -8.237758|   -7.028136|
|        9122|   -9.946589|   -7.584744|   -8.244436|   -7.028133|
