scsub> Executing:  'cd /home/hem1dev/Codes/SU2_Github_Mark_Test/SU2/Venturi'


WARNING: CONV_CRITERIA is deprecated. SU2 will choose the criteria automatically based on the CONV_FIELD.
That is, RESIDUAL for any RMS_* BGS_* value, and CAUCHY for coefficients such as DRAG etc.


-------------------------------------------------------------------------
|    ___ _   _ ___                                                      |
|   / __| | | |_  )   Release 7.1.1 "Blackbird"                         |
|   \__ \ |_| |/ /                                                      |
|   |___/\___//___|   Suite (Computational Fluid Dynamics Code)         |
|                                                                       |
-------------------------------------------------------------------------
| SU2 Project Website: https://su2code.github.io                        |
|                                                                       |
| The SU2 Project is maintained by the SU2 Foundation                   |
| (http://su2foundation.org)                                            |
-------------------------------------------------------------------------
| Copyright 2012-2021, SU2 Contributors                                 |
|                                                                       |
| SU2 is free software; you can redistribute it and/or                  |
| modify it under the terms of the GNU Lesser General Public            |
| License as published by the Free Software Foundation; either          |
| version 2.1 of the License, or (at your option) any later version.    |
|                                                                       |
| SU2 is distributed in the hope that it will be useful,                |
| but WITHOUT ANY WARRANTY; without even the implied warranty of        |
| MERCHANTABILITY or FITNESS FOR A PARTICULAR PURPOSE. See the GNU      |
| Lesser General Public License for more details.                       |
|                                                                       |
| You should have received a copy of the GNU Lesser General Public      |
| License along with SU2. If not, see <http://www.gnu.org/licenses/>.   |
-------------------------------------------------------------------------


WARNING: CONV_CRITERIA is deprecated. SU2 will choose the criteria automatically based on the CONV_FIELD.
That is, RESIDUAL for any RMS_* BGS_* value, and CAUCHY for coefficients such as DRAG etc.


Parsing config file for zone 0


WARNING: CONV_CRITERIA is deprecated. SU2 will choose the criteria automatically based on the CONV_FIELD.
That is, RESIDUAL for any RMS_* BGS_* value, and CAUCHY for coefficients such as DRAG etc.


----------------- Physical Case Definition ( Zone 0 ) -------------------
Incompressible Laminar Navier-Stokes' equations.
No restart solution, use the values at infinity (freestream).
Dimensional simulation.
The reference area is 1 m^2.
The semi-span will be computed using the max y(3D) value.
The reference length is 1 m.
Input mesh file name: c6_cms_venturi.cgns

--------------- Space Numerical Integration ( Zone 0 ) ------------------
Flux difference splitting (FDS) upwind scheme for the flow inviscid terms.
Second order integration in space, with slope limiter.
No slope-limiting method. 
Average of gradients with correction (viscous flow terms).
Gradient for upwind reconstruction: inverse-distance weighted Least-Squares.
Gradient for viscous and source terms: inverse-distance weighted Least-Squares.

--------------- Time Numerical Integration  ( Zone 0 ) ------------------
Local time stepping (steady state simulation).
Euler implicit method for the flow equations.
FGMRES is used for solving the linear system.
Using a ILU(0) preconditioning.
Convergence criteria of the linear solver: 1e-08.
Max number of linear iterations: 20.
No CFL adaptation.
Courant-Friedrichs-Lewy number:      100

------------------ Convergence Criteria  ( Zone 0 ) ---------------------
Maximum number of solver subiterations: 50000.
Begin convergence monitoring at iteration 10.
Residual minimum value: 1e-10.
Cauchy series min. value: 1e-06.
Number of Cauchy elements: 100.
Begin windowed time average at iteration 0.

-------------------- Output Information ( Zone 0 ) ----------------------
Writing solution files every 5000 iterations.
Writing the convergence history file every 1 inner iterations.
Writing the screen convergence history every 1 inner iterations.
The tabular file format is CSV (.csv).
Convergence history file name: history_test.
Forces breakdown file name: forces_breakdown.dat.
Surface file name: surface_flow_venturi_mixturedensity_30kW_fine_test.
Volume file name: flow_venturi_mixturedensity_30kW_fine_test.
Restart file name: restart_venturi_mixturedensity_30kW_fine_test.dat.

------------- Config File Boundary Information ( Zone 0 ) ---------------
+-----------------------------------------------------------------------+
|                        Marker Type|                        Marker Name|
+-----------------------------------------------------------------------+
|                     Symmetry plane|                               axis|
+-----------------------------------------------------------------------+
|                     Inlet boundary|                          gas_inlet|
|                                   |                          air_inlet|
+-----------------------------------------------------------------------+
|                    Outlet boundary|                             outlet|
+-----------------------------------------------------------------------+
|                     Heat flux wall|            wall-component1-surface|
+-----------------------------------------------------------------------+

-------------------- Output Preprocessing ( Zone 0 ) --------------------
  Info: Ignoring the following screen output fields:
  RMS_PASSIVE_SCALAR
Screen output fields: INNER_ITER, RMS_PRESSURE, RMS_VELOCITY-X, RMS_VELOCITY-Y
History output group(s): RMS_RES, AERO_COEFF, FLOW_COEFF
Ignoring Convergence Field(s): RMS_TKE 
Convergence field(s): RMS_PRESSURE, RMS_VELOCITY-X, RMS_VELOCITY-Y
Warning: No (valid) fields chosen for time convergence monitoring. Time convergence monitoring inactive.
  Info: Ignoring the following volume output fields/groups:
  SOURCE, LOOKUP
Volume output fields: DENSITY, SOLUTION, PRIMITIVE, RESIDUAL, COORDINATES

------------------- Geometry Preprocessing ( Zone 0 ) -------------------
Reading the CGNS file: c6_cms_venturi.cgns.
CGNS file contains 1 database(s).
Database 1, Base:  cell dimension of 2, physical dimension of 2.
1 total zone(s).
Zone 1, Zone: 292948 total vertices, 295883 total elements.
Loading CoordinateX values into linear partitions.
Loading CoordinateY values into linear partitions.
Distributing connectivity across all ranks.
Number of connectivity sections is 6.
Section gas_inlet contains 51 elements of type Mixed.
Section air_inlet contains 150 elements of type Mixed.
Section outlet contains 157 elements of type Mixed.
Section axis contains 1721 elements of type Mixed.
Section component1-surface contains 290183 elements of type Mixed.
Section wall-component1-surface contains 3621 elements of type Mixed.
Loading surface section gas_inlet from file.
Loading surface section air_inlet from file.
Loading surface section outlet from file.
Loading surface section axis from file.
Loading volume section component1-surface from file.
Loading surface section wall-component1-surface from file.
Two dimensional problem.
292948 grid points before partitioning.
290183 volume elements before partitioning.
5 surface markers.
51 boundary elements in index 0 (Marker = gas_inlet).
150 boundary elements in index 1 (Marker = air_inlet).
157 boundary elements in index 2 (Marker = outlet).
1721 boundary elements in index 3 (Marker = axis).
3621 boundary elements in index 4 (Marker = wall-component1-surface).
Executing the partitioning functions.
Building the graph adjacency structure.
Calling ParMETIS... graph partitioning complete (13664 edge cuts).
Distributing ParMETIS coloring.
Rebalancing vertices.
Rebalancing volume element connectivity.
Rebalancing markers and surface elements.
320622 vertices including ghost points. 
303883 interior elements including halo cells. 
174 triangles.
303709 quadrilaterals.
Establishing MPI communication patterns.
Setting point connectivity.
Renumbering points (Reverse Cuthill McKee Ordering).
Recomputing point connectivity.
Setting element connectivity.
Checking the numerical grid orientation.
All volume elements are correctly orientend.
All surface elements are correctly orientend.
Identifying edges and vertices.
Setting the control volume structure.
Area of the computational grid: 0.00286008.
Searching for the closest normal neighbors to the surfaces.
Storing a mapping from global to local point index.
Compute the surface curvature.
Max K: 25766.3. Mean K: 66.0693. Standard deviation K: 1007.76.
Checking for periodicity.
Computing mesh quality statistics for the dual control volumes.
+--------------------------------------------------------------+
|           Mesh Quality Metric|        Minimum|        Maximum|
+--------------------------------------------------------------+
|    Orthogonality Angle (deg.)|        45.2115|             90|
|     CV Face Area Aspect Ratio|              1|        10.3208|
|           CV Sub-Volume Ratio|              1|        9.85984|
+--------------------------------------------------------------+
Finding max control volume width.
Communicating number of neighbors.
Wetted area = 0 m.
Area projection in the x-plane = 0 m, y-plane = 0 m.
Max. coordinate in the x-direction = -1e+10 m, y-direction = -1e+10 m.
Min. coordinate in the x-direction = 1e+10 m, y-direction = 1e+10 m.
Checking if Euler & Symmetry markers are straight/plane:
Boundary marker axis is a single straight.
Computing wall distances.

-------------------- Solver Preprocessing ( Zone 0 ) --------------------
Incompressible flow: rho_ref, vel_ref, temp_ref, p_ref
are set to 1.0 in order to perform a dimensional calculation.
Force coefficients computed using initial values.
The reference area for force coeffs. is 1 m^2.
The reference length for force coeffs. is 1 m.
The pressure is decomposed into thermodynamic and dynamic components.
The initial value of the dynamic pressure is 0.
Mach number: 0, computed using fluid speed of sound.
For external flows, the initial state is imposed at the far-field.
Angle of attack (deg): 0, computed using the initial velocity.
Side slip angle (deg): 0, computed using the initial velocity.
Reynolds number per meter: 65008.4, computed using initial values.
Reynolds number is a byproduct of inputs only (not used internally).
SI units only. The grid should be dimensional (meters).
Energy equation is active and coupled for variable density.

-- Models:
+------------------------------------------------------------------------------+
|          Viscosity Model|        Conductivity Model|              Fluid Model|
+------------------------------------------------------------------------------+
|               SUTHERLAND|          CONSTANT_PRANDTL|            INC_IDEAL_GAS|
+------------------------------------------------------------------------------+
-- Fluid properties:
+------------------------------------------------------------------------------+
|                  Name|    Dim. value|    Ref. value|      Unit|Non-dim. value|
+------------------------------------------------------------------------------+
|        Ref. Viscosity|     1.716e-05|             1|   N.s/m^2|     1.716e-05|
|      Sutherland Temp.|        273.15|             1|         K|        273.15|
|     Sutherland Const.|         110.4|             1|         K|         110.4|
+------------------------------------------------------------------------------+
|        Prandtl (Lam.)|             -|             -|         -|          0.72|
|       Prandtl (Turb.)|             -|             -|         -|           0.9|
+------------------------------------------------------------------------------+
|       Spec. Heat (Cp)|        1004.7|             1|  N.m/kg.K|        1004.7|
|      Molecular weight|        16.043|             1|     g/mol|        16.043|
|          Gas Constant|       296.945|             1|  N.m/kg.K|       296.945|
|       Therm. Pressure|        106900|             1|        Pa|        106900|
+------------------------------------------------------------------------------+
-- Initial and free-stream conditions:
+------------------------------------------------------------------------------+
|                  Name|    Dim. value|    Ref. value|      Unit|Non-dim. value|
+------------------------------------------------------------------------------+
|      Dynamic Pressure|             0|             1|        Pa|             0|
|        Total Pressure|           0.6|             1|        Pa|           0.6|
|               Density|           1.2|             1|    kg/m^3|           1.2|
|           Temperature|           300|             1|         K|           300|
|            Velocity-X|             1|             1|       m/s|             1|
|            Velocity-Y|             0|             1|       m/s|             0|
|    Velocity Magnitude|             1|             1|       m/s|             1|
+------------------------------------------------------------------------------+
|             Viscosity|   1.84592e-05|             1|   N.s/m^2|   1.84592e-05|
|          Conductivity|             -|             1|   W/m^2.K|             -|
+------------------------------------------------------------------------------+
|           Mach Number|             -|             -|         -|             0|
|       Reynolds Number|             -|             -|         -|       65008.4|
+------------------------------------------------------------------------------+
Initialize Jacobian structure (Navier-Stokes). MG level: 0.

------------------- Numerics Preprocessing ( Zone 0 ) -------------------

----------------- Integration Preprocessing ( Zone 0 ) ------------------

------------------- Iteration Preprocessing ( Zone 0 ) ------------------
Euler/Navier-Stokes/RANS fluid iteration.

------------------------------ Begin Solver -----------------------------

Simulation Run using the Single-zone Driver
+---------------------------------------------------+
|  Inner_Iter|      rms[P]|      rms[U]|      rms[V]|
+---------------------------------------------------+
|           0|   -4.752486|   -4.482865|   -4.000289|
|           1|   -5.252331|   -4.420139|   -4.182572|
|           2|   -5.374772|   -4.599345|   -4.210916|
|           3|   -5.686748|   -4.895357|   -4.578756|
|           4|   -5.835922|   -4.943294|   -4.741209|
|           5|   -5.811997|   -4.939980|   -4.939811|
|           6|   -5.839429|   -4.922840|   -4.993147|
|           7|   -5.845209|   -4.907901|   -4.855568|
|           8|   -5.793732|   -4.897059|   -4.686820|
|           9|   -5.723849|   -4.889929|   -4.545101|
|          10|   -5.692188|   -4.884979|   -4.443330|
|          11|   -5.696285|   -4.880683|   -4.414237|
|          12|   -5.735829|   -4.875409|   -4.439885|
|          13|   -5.794277|   -4.866946|   -4.491286|
|          14|   -5.848506|   -4.853250|   -4.550403|
|          15|   -5.888622|   -4.834778|   -4.602502|
|          16|   -5.915231|   -4.814240|   -4.632199|
|          17|   -5.929869|   -4.794128|   -4.633630|
|          18|   -5.935522|   -4.775500|   -4.616206|
|          19|   -5.937953|   -4.758353|   -4.594669|
|          20|   -5.942515|   -4.742319|   -4.579014|
|          21|   -5.951388|   -4.727068|   -4.572970|
|          22|   -5.963962|   -4.712382|   -4.575600|
|          23|   -5.978314|   -4.698113|   -4.583668|
|          24|   -5.992455|   -4.684203|   -4.593397|
|          25|   -6.005037|   -4.670734|   -4.601892|
|          26|   -6.015553|   -4.657923|   -4.607658|
|          27|   -6.024165|   -4.646012|   -4.610636|
|          28|   -6.031337|   -4.635179|   -4.611691|
|          29|   -6.037642|   -4.625440|   -4.612043|
|          30|   -6.043552|   -4.616670|   -4.612650|
|          31|   -6.049372|   -4.608640|   -4.613995|
|          32|   -6.055227|   -4.601093|   -4.616059|
|          33|   -6.061112|   -4.593814|   -4.618540|
|          34|   -6.066976|   -4.586665|   -4.620980|
|          35|   -6.072771|   -4.579597|   -4.622968|
|          36|   -6.078478|   -4.572630|   -4.624216|
|          37|   -6.084106|   -4.565808|   -4.624580|
|          38|   -6.089665|   -4.559161|   -4.624029|
|          39|   -6.095153|   -4.552656|   -4.622511|
|          40|   -6.100610|   -4.546199|   -4.620055|
|          41|   -6.105984|   -4.539726|   -4.616571|
|          42|   -6.111210|   -4.533303|   -4.612168|
|          43|   -6.116204|   -4.527105|   -4.607105|
|          44|   -6.120919|   -4.521281|   -4.601589|
|          45|   -6.125290|   -4.516280|   -4.596095|
|          46|   -6.129248|   -4.512899|   -4.591297|
|          47|   -6.132839|   -4.511108|   -4.587640|
|          48|   -6.136126|   -4.510232|   -4.585245|
|          49|   -6.139170|   -4.509669|   -4.583796|
|          50|   -6.142014|   -4.509147|   -4.582959|
|          51|   -6.144705|   -4.508581|   -4.582664|
|          52|   -6.147293|   -4.507944|   -4.582895|
|          53|   -6.149775|   -4.507142|   -4.583478|
|          54|   -6.152155|   -4.506038|   -4.583210|
|          55|   -6.154523|   -4.504471|   -4.580958|
|          56|   -6.156978|   -4.502402|   -4.578251|
|          57|   -6.159419|   -4.499816|   -4.574940|
|          58|   -6.161718|   -4.496730|   -4.570664|
|          59|   -6.163861|   -4.493179|   -4.565777|
|          60|   -6.165817|   -4.489247|   -4.560728|
|          61|   -6.167507|   -4.485028|   -4.555595|
|          62|   -6.168890|   -4.480630|   -4.550553|
|          63|   -6.169952|   -4.476160|   -4.545735|
|          64|   -6.170710|   -4.471708|   -4.540694|
|          65|   -6.171281|   -4.467391|   -4.535930|
|          66|   -6.171724|   -4.463299|   -4.531521|
|          67|   -6.172092|   -4.459495|   -4.527400|
|          68|   -6.172465|   -4.455999|   -4.523596|
|          69|   -6.172923|   -4.452785|   -4.520090|
|          70|   -6.173545|   -4.449803|   -4.516966|
|          71|   -6.174383|   -4.446967|   -4.514221|
|          72|   -6.175483|   -4.444159|   -4.511578|
|          73|   -6.176934|   -4.441291|   -4.509458|
|          74|   -6.178748|   -4.438210|   -4.507140|
|          75|   -6.181033|   -4.434882|   -4.505715|
|          76|   -6.183695|   -4.431233|   -4.505239|
|          77|   -6.186654|   -4.427221|   -4.505701|
|          78|   -6.189968|   -4.422790|   -4.506222|
|          79|   -6.193778|   -4.417951|   -4.507565|
|          80|   -6.198125|   -4.412727|   -4.509912|
|          81|   -6.202977|   -4.407211|   -4.513130|
|          82|   -6.208372|   -4.401526|   -4.517233|
|          83|   -6.214348|   -4.395804|   -4.522199|
|          84|   -6.221033|   -4.390179|   -4.527772|
|          85|   -6.228550|   -4.384776|   -4.533910|
|          86|   -6.236891|   -4.379710|   -4.540813|
|          87|   -6.246060|   -4.375090|   -4.548418|
|          88|   -6.256030|   -4.371008|   -4.556675|
|          89|   -6.266807|   -4.367539|   -4.565496|
|          90|   -6.278330|   -4.364733|   -4.574859|
|          91|   -6.290565|   -4.362611|   -4.584685|
|          92|   -6.303423|   -4.361175|   -4.594944|
|          93|   -6.316808|   -4.360415|   -4.605614|
|          94|   -6.330571|   -4.360319|   -4.616665|
|          95|   -6.344598|   -4.360860|   -4.627979|
|          96|   -6.358627|   -4.362001|   -4.639415|
|          97|   -6.372470|   -4.363676|   -4.650774|
|          98|   -6.385850|   -4.365798|   -4.661799|
|          99|   -6.398662|   -4.368266|   -4.672143|
|         100|   -6.410918|   -4.370972|   -4.681409|
|         101|   -6.422120|   -4.373823|   -4.689268|
|         102|   -6.432059|   -4.376720|   -4.695189|
|         103|   -6.440506|   -4.379541|   -4.698580|
|         104|   -6.447394|   -4.382153|   -4.698838|
|         105|   -6.452554|   -4.384426|   -4.695501|
|         106|   -6.456054|   -4.386239|   -4.688261|
|         107|   -6.458117|   -4.387479|   -4.677083|
|         108|   -6.458246|   -4.388109|   -4.662527|
|         109|   -6.456550|   -4.388098|   -4.645226|
|         110|   -6.453149|   -4.387466|   -4.626004|
|         111|   -6.448540|   -4.386265|   -4.605679|
|         112|   -6.443014|   -4.384627|   -4.585224|
|         113|   -6.436806|   -4.382730|   -4.565614|
|         114|   -6.430155|   -4.380787|   -4.547557|
|         115|   -6.423254|   -4.379051|   -4.531603|
|         116|   -6.416257|   -4.377792|   -4.518112|
|         117|   -6.409295|   -4.377256|   -4.507264|
|         118|   -6.402431|   -4.377646|   -4.499082|
|         119|   -6.395829|   -4.379106|   -4.493463|
|         120|   -6.389336|   -4.381726|   -4.490097|
|         121|   -6.383085|   -4.385512|   -4.488829|
|         122|   -6.377037|   -4.390431|   -4.489394|
|         123|   -6.371097|   -4.396386|   -4.491602|
|         124|   -6.365258|   -4.403281|   -4.495323|
|         125|   -6.360012|   -4.410951|   -4.499221|
|         126|   -6.355944|   -4.419091|   -4.503721|
|         127|   -6.352560|   -4.427428|   -4.508847|
|         128|   -6.349407|   -4.435738|   -4.514216|
|         129|   -6.346015|   -4.443767|   -4.519228|
|         130|   -6.342393|   -4.451258|   -4.523493|
|         131|   -6.338674|   -4.458045|   -4.526715|
|         132|   -6.334809|   -4.464077|   -4.528543|
|         133|   -6.330619|   -4.469432|   -4.528604|
|         134|   -6.326278|   -4.474231|   -4.526961|
|         135|   -6.321867|   -4.478537|   -4.523717|
|         136|   -6.317435|   -4.482249|   -4.519019|
|         137|   -6.313018|   -4.485060|   -4.513063|
|         138|   -6.308644|   -4.486524|   -4.506074|
|         139|   -6.304339|   -4.486272|   -4.498316|
|         140|   -6.300117|   -4.484200|   -4.490072|
|         141|   -6.296043|   -4.480491|   -4.481665|
|         142|   -6.292097|   -4.475487|   -4.473246|
|         143|   -6.288258|   -4.469815|   -4.465069|
|         144|   -6.284494|   -4.464302|   -4.457156|
|         145|   -6.280726|   -4.459746|   -4.449183|
|         146|   -6.276870|   -4.456547|   -4.440661|
|         147|   -6.272894|   -4.454145|   -4.431171|
|         148|   -6.268882|   -4.450871|   -4.420605|
|         149|   -6.264975|   -4.444646|   -4.409073|
|         150|   -6.261262|   -4.434352|   -4.396552|
|         151|   -6.257753|   -4.420679|   -4.383238|
|         152|   -6.254440|   -4.405815|   -4.370032|
|         153|   -6.251380|   -4.392415|   -4.358394|
|         154|   -6.248638|   -4.382707|   -4.349783|
|         155|   -6.246488|   -4.377875|   -4.345064|
|         156|   -6.244697|   -4.377880|   -4.344016|
|         157|   -6.243304|   -4.381627|   -4.345723|
|         158|   -6.242240|   -4.387520|   -4.348937|
|         159|   -6.241430|   -4.394099|   -4.352632|
|         160|   -6.240744|   -4.400410|   -4.356177|
|         161|   -6.240158|   -4.406033|   -4.359354|
|         162|   -6.239634|   -4.410898|   -4.362150|
|         163|   -6.239186|   -4.415053|   -4.364696|
|         164|   -6.238822|   -4.418606|   -4.367174|
|         165|   -6.238633|   -4.421730|   -4.369844|
|         166|   -6.238679|   -4.424673|   -4.372934|
|         167|   -6.238990|   -4.427700|   -4.376596|
|         168|   -6.239611|   -4.430978|   -4.380918|
|         169|   -6.240522|   -4.434503|   -4.385840|
|         170|   -6.241744|   -4.438123|   -4.391261|
|         171|   -6.243245|   -4.441607|   -4.396988|
|         172|   -6.244936|   -4.444704|   -4.402759|
|         173|   -6.246918|   -4.447156|   -4.408516|
|         174|   -6.249001|   -4.448752|   -4.413910|
|         175|   -6.251245|   -4.449312|   -4.418861|
|         176|   -6.253581|   -4.448708|   -4.423154|
|         177|   -6.256024|   -4.446847|   -4.426679|
|         178|   -6.258520|   -4.443667|   -4.429257|
|         179|   -6.261061|   -4.439145|   -4.430764|
|         180|   -6.263556|   -4.433311|   -4.431004|
|         181|   -6.265956|   -4.426247|   -4.429849|
|         182|   -6.268238|   -4.418079|   -4.427261|
|         183|   -6.270265|   -4.408972|   -4.423110|
|         184|   -6.272102|   -4.399109|   -4.417557|
|         185|   -6.273639|   -4.388677|   -4.410618|
|         186|   -6.274896|   -4.377869|   -4.402496|
|         187|   -6.275847|   -4.366868|   -4.393378|
|         188|   -6.276516|   -4.355842|   -4.383521|
|         189|   -6.276919|   -4.344945|   -4.373180|
|         190|   -6.277073|   -4.334313|   -4.362604|
|         191|   -6.277051|   -4.324056|   -4.352061|
|         192|   -6.276745|   -4.314267|   -4.341641|
|         193|   -6.276340|   -4.304997|   -4.331646|
|         194|   -6.275720|   -4.296289|   -4.322076|
|         195|   -6.274977|   -4.288161|   -4.313071|
|         196|   -6.274146|   -4.280604|   -4.304691|
|         197|   -6.273263|   -4.273593|   -4.296960|
|         198|   -6.272383|   -4.267089|   -4.289891|
|         199|   -6.271566|   -4.261031|   -4.283488|
|         200|   -6.270857|   -4.255340|   -4.277732|
|         201|   -6.270281|   -4.249925|   -4.272588|
|         202|   -6.269858|   -4.244690|   -4.268007|
|         203|   -6.269602|   -4.239540|   -4.263935|
|         204|   -6.269530|   -4.234394|   -4.260310|
|         205|   -6.269659|   -4.229191|   -4.257071|
|         206|   -6.270015|   -4.223893|   -4.254155|
|         207|   -6.270630|   -4.218456|   -4.251510|
|         208|   -6.271514|   -4.212812|   -4.249071|
|         209|   -6.272671|   -4.206859|   -4.246758|
|         210|   -6.274116|   -4.200504|   -4.244498|
|         211|   -6.275853|   -4.193693|   -4.242216|
|         212|   -6.277872|   -4.186416|   -4.239838|
|         213|   -6.280156|   -4.178695|   -4.237296|
|         214|   -6.282683|   -4.170568|   -4.234518|
|         215|   -6.285430|   -4.162079|   -4.231443|
|         216|   -6.288368|   -4.153252|   -4.228011|
|         217|   -6.291464|   -4.144099|   -4.224155|
|         218|   -6.294657|   -4.134624|   -4.219797|
|         219|   -6.297832|   -4.124846|   -4.214828|
|         220|   -6.301027|   -4.114822|   -4.209263|
|         221|   -6.303926|   -4.104633|   -4.202893|
|         222|   -6.306497|   -4.094403|   -4.195697|
|         223|   -6.308586|   -4.084295|   -4.187601|
|         224|   -6.310138|   -4.074490|   -4.178659|
|         225|   -6.310861|   -4.065197|   -4.168835|
|         226|   -6.310898|   -4.056704|   -4.158497|
|         227|   -6.310526|   -4.049345|   -4.148238|
|         228|   -6.310408|   -4.043455|   -4.138943|
|         229|   -6.311458|   -4.039271|   -4.131707|
|         230|   -6.315106|   -4.036848|   -4.127730|
|         231|   -6.322570|   -4.036021|   -4.127667|
|         232|   -6.334170|   -4.036463|   -4.130980|
|         233|   -6.348479|   -4.037789|   -4.135596|
|         234|   -6.362197|   -4.039594|   -4.138597|
|         235|   -6.371751|   -4.041371|   -4.138008|
|         236|   -6.375568|   -4.042482|   -4.133844|
|         237|   -6.374700|   -4.042375|   -4.127415|
|         238|   -6.371481|   -4.040849|   -4.120168|
|         239|   -6.367817|   -4.038120|   -4.112973|
|         240|   -6.364783|   -4.034653|   -4.106265|
|         241|   -6.362562|   -4.030943|   -4.100294|
|         242|   -6.361417|   -4.027404|   -4.095336|
|         243|   -6.361521|   -4.024352|   -4.091574|
|         244|   -6.363057|   -4.022019|   -4.089042|
|         245|   -6.365873|   -4.020528|   -4.087597|
|         246|   -6.369609|   -4.019870|   -4.086917|
|         247|   -6.373845|   -4.019899|   -4.086601|
|         248|   -6.377956|   -4.020359|   -4.086181|
|         249|   -6.381502|   -4.020947|   -4.085231|
|         250|   -6.383943|   -4.021355|   -4.083352|
|         251|   -6.384987|   -4.021297|   -4.080310|
|         252|   -6.384347|   -4.020528|   -4.076005|
|         253|   -6.382113|   -4.018876|   -4.070516|
|         254|   -6.378545|   -4.016268|   -4.063776|
|         255|   -6.375840|   -4.012747|   -4.056220|
|         256|   -6.374492|   -4.008387|   -4.048226|
|         257|   -6.372912|   -4.003275|   -4.039692|
|         258|   -6.370923|   -3.997555|   -4.030642|
|         259|   -6.368724|   -3.991358|   -4.021152|
|         260|   -6.366184|   -3.984782|   -4.011289|
|         261|   -6.362924|   -3.977851|   -4.000637|
|         262|   -6.363059|   -3.970612|   -3.990307|
|         263|   -6.363363|   -3.962964|   -3.980097|
|         264|   -6.362107|   -3.954866|   -3.970103|
|         265|   -6.359005|   -3.946347|   -3.960597|
|         266|   -6.353353|   -3.937515|   -3.951332|
|         267|   -6.349027|   -3.928686|   -3.942791|
|         268|   -6.348339|   -3.920265|   -3.935839|
|         269|   -6.345388|   -3.912479|   -3.929889|
|         270|   -6.339692|   -3.905655|   -3.924949|
|         271|   -6.332435|   -3.900026|   -3.920999|
|         272|   -6.325324|   -3.895714|   -3.918106|
|         273|   -6.319431|   -3.892723|   -3.916254|
|         274|   -6.315047|   -3.890945|   -3.915476|
|         275|   -6.310313|   -3.890173|   -3.915288|
|         276|   -6.306489|   -3.890269|   -3.915684|
|         277|   -6.303480|   -3.891064|   -3.916461|
|         278|   -6.300986|   -3.892397|   -3.917442|
|         279|   -6.299052|   -3.894104|   -3.918497|
|         280|   -6.298018|   -3.896031|   -3.919557|
|         281|   -6.297802|   -3.898002|   -3.920530|
|         282|   -6.298455|   -3.899871|   -3.921330|
|         283|   -6.299871|   -3.901467|   -3.921905|
|         284|   -6.301777|   -3.902682|   -3.922069|
|         285|   -6.304537|   -3.903485|   -3.921775|
|         286|   -6.307947|   -3.903903|   -3.920988|
|         287|   -6.311376|   -3.904027|   -3.919725|
|         288|   -6.315098|   -3.904017|   -3.918335|
|         289|   -6.319002|   -3.904059|   -3.917356|
|         290|   -6.323023|   -3.904357|   -3.917472|
|         291|   -6.327639|   -3.905151|   -3.919384|
|         292|   -6.332767|   -3.906704|   -3.923422|
|         293|   -6.338471|   -3.909251|   -3.929503|
|         294|   -6.344591|   -3.912963|   -3.936959|
|         295|   -6.351306|   -3.917852|   -3.945011|
|         296|   -6.358461|   -3.923716|   -3.953156|
|         297|   -6.364866|   -3.930126|   -3.961171|
|         298|   -6.370884|   -3.936590|   -3.969182|
|         299|   -6.377422|   -3.942736|   -3.977434|
|         300|   -6.384995|   -3.948412|   -3.986184|
|         301|   -6.393075|   -3.953618|   -3.995536|
|         302|   -6.401340|   -3.958392|   -4.005449|
|         303|   -6.409446|   -3.962761|   -4.015717|
|         304|   -6.417139|   -3.966696|   -4.026072|
|         305|   -6.424097|   -3.970126|   -4.036219|
|         306|   -6.429907|   -3.972979|   -4.045865|
|         307|   -6.434174|   -3.975188|   -4.054714|
|         308|   -6.436768|   -3.976691|   -4.062510|
|         309|   -6.437692|   -3.977434|   -4.068964|
|         310|   -6.437309|   -3.977408|   -4.073912|
|         311|   -6.435457|   -3.976650|   -4.077229|
|         312|   -6.431841|   -3.975242|   -4.078790|
|         313|   -6.426532|   -3.973299|   -4.078561|
|         314|   -6.419685|   -3.970970|   -4.076651|
|         315|   -6.411344|   -3.968405|   -4.073297|
|         316|   -6.401474|   -3.965729|   -4.068815|
|         317|   -6.390306|   -3.963020|   -4.063443|
|         318|   -6.378775|   -3.960322|   -4.057548|
|         319|   -6.367491|   -3.957606|   -4.051390|
|         320|   -6.356563|   -3.954795|   -4.044923|
|         321|   -6.345941|   -3.951856|   -4.038258|
|         322|   -6.334402|   -3.948722|   -4.030608|
|         323|   -6.323463|   -3.945572|   -4.022509|
|         324|   -6.311757|   -3.942397|   -4.013429|
|         325|   -6.301575|   -3.939423|   -4.004422|
|         326|   -6.291539|   -3.936633|   -3.995283|
|         327|   -6.283259|   -3.934189|   -3.986747|
|         328|   -6.275794|   -3.932062|   -3.978811|
|         329|   -6.268826|   -3.930241|   -3.971016|
|         330|   -6.262975|   -3.928651|   -3.963042|
|         331|   -6.257321|   -3.927046|   -3.954291|
|         332|   -6.252402|   -3.925208|   -3.944944|
|         333|   -6.249225|   -3.922960|   -3.935708|
|         334|   -6.247594|   -3.920207|   -3.926629|
|         335|   -6.248684|   -3.917089|   -3.918091|
|         336|   -6.251029|   -3.913786|   -3.909933|
|         337|   -6.252797|   -3.910647|   -3.901936|
|         338|   -6.251779|   -3.908025|   -3.893837|
|         339|   -6.246960|   -3.906215|   -3.885635|
|         340|   -6.239110|   -3.905374|   -3.877580|
|         341|   -6.230852|   -3.905501|   -3.870265|
|         342|   -6.223974|   -3.906390|   -3.864161|
|         343|   -6.219271|   -3.907716|   -3.859482|
|         344|   -6.216446|   -3.909097|   -3.856174|
|         345|   -6.214576|   -3.910208|   -3.853997|
|         346|   -6.212803|   -3.910839|   -3.852662|
|         347|   -6.210498|   -3.910889|   -3.851902|
|         348|   -6.207555|   -3.910340|   -3.851593|
|         349|   -6.204142|   -3.909272|   -3.851702|
|         350|   -6.200485|   -3.907855|   -3.852229|
|         351|   -6.196773|   -3.906296|   -3.853142|
|         352|   -6.193247|   -3.904769|   -3.854448|
|         353|   -6.189947|   -3.903413|   -3.856069|
|         354|   -6.187289|   -3.902326|   -3.858074|
|         355|   -6.185260|   -3.901600|   -3.860489|
|         356|   -6.183617|   -3.901309|   -3.863275|
|         357|   -6.182230|   -3.901467|   -3.866357|
|         358|   -6.181221|   -3.902028|   -3.869610|
|         359|   -6.181188|   -3.902904|   -3.873126|
|         360|   -6.182023|   -3.904032|   -3.876846|
|         361|   -6.183423|   -3.905361|   -3.880671|
|         362|   -6.185204|   -3.906858|   -3.884505|
|         363|   -6.187342|   -3.908497|   -3.888288|
|         364|   -6.189848|   -3.910222|   -3.891929|
|         365|   -6.192928|   -3.911928|   -3.895455|
|         366|   -6.196485|   -3.913537|   -3.898861|
|         367|   -6.200216|   -3.914998|   -3.902073|
|         368|   -6.204006|   -3.916230|   -3.905115|
|         369|   -6.207620|   -3.917125|   -3.907982|
|         370|   -6.210747|   -3.917597|   -3.910685|
|         371|   -6.212844|   -3.917606|   -3.913185|
|         372|   -6.213437|   -3.917126|   -3.915330|
|         373|   -6.212893|   -3.916093|   -3.917439|
|         374|   -6.209976|   -3.914524|   -3.919217|
|         375|   -6.204773|   -3.912491|   -3.920774|
|         376|   -6.196409|   -3.910099|   -3.922042|
|         377|   -6.183811|   -3.907488|   -3.922766|
|         378|   -6.167122|   -3.904805|   -3.922957|
|         379|   -6.146638|   -3.902238|   -3.922757|
|         380|   -6.122788|   -3.900088|   -3.922319|
|         381|   -6.097060|   -3.898790|   -3.922002|
|         382|   -6.071981|   -3.898885|   -3.922382|
|         383|   -6.051050|   -3.900946|   -3.924208|
|         384|   -6.038500|   -3.905444|   -3.928540|
|         385|   -6.037584|   -3.912571|   -3.936130|
|         386|   -6.049318|   -3.922174|   -3.946677|
|         387|   -6.071881|   -3.933806|   -3.958568|
|         388|   -6.100339|   -3.946796|   -3.968099|
|         389|   -6.132619|   -3.960089|   -3.975153|
|         390|   -6.159211|   -3.972642|   -3.978905|
|         391|   -6.174721|   -3.984005|   -3.980155|
|         392|   -6.181365|   -3.994039|   -3.980523|
|         393|   -6.183660|   -4.002704|   -3.981209|
|         394|   -6.184823|   -4.009996|   -3.982689|
|         395|   -6.187082|   -4.015864|   -3.984301|
|         396|   -6.195876|   -4.020106|   -3.986594|
|         397|   -6.208887|   -4.022707|   -3.989300|
|         398|   -6.222768|   -4.024008|   -3.991902|
|         399|   -6.235775|   -4.024378|   -3.993909|
|         400|   -6.247229|   -4.024102|   -3.995042|
|         401|   -6.257690|   -4.023384|   -3.995336|
|         402|   -6.267756|   -4.022402|   -3.994910|
|         403|   -6.277488|   -4.021324|   -3.993865|
|         404|   -6.286486|   -4.020313|   -3.992311|
|         405|   -6.294277|   -4.019442|   -3.990409|
|         406|   -6.300508|   -4.018655|   -3.988345|
|         407|   -6.304615|   -4.017878|   -3.986226|
|         408|   -6.306365|   -4.017093|   -3.984142|
|         409|   -6.305956|   -4.016328|   -3.982164|
|         410|   -6.303911|   -4.015545|   -3.980264|
|         411|   -6.300819|   -4.014589|   -3.978309|
|         412|   -6.297383|   -4.013177|   -3.976072|
|         413|   -6.294119|   -4.010948|   -3.973274|
|         414|   -6.291314|   -4.007595|   -3.969648|
|         415|   -6.288556|   -4.003013|   -3.964961|
|         416|   -6.284739|   -3.997450|   -3.959048|
|         417|   -6.278542|   -3.991563|   -3.951839|
|         418|   -6.269213|   -3.986317|   -3.943567|
|         419|   -6.257395|   -3.982737|   -3.934967|
|         420|   -6.244275|   -3.981406|   -3.926938|
|         421|   -6.231271|   -3.982041|   -3.919738|
|         422|   -6.219809|   -3.983561|   -3.912734|
|         423|   -6.210600|   -3.984503|   -3.904952|
|         424|   -6.203584|   -3.983730|   -3.895409|
|         425|   -6.197996|   -3.980878|   -3.883599|
|         426|   -6.192169|   -3.976376|   -3.870055|
|         427|   -6.184231|   -3.971102|   -3.856001|
|         428|   -6.173739|   -3.966093|   -3.842791|
|         429|   -6.160592|   -3.961948|   -3.831528|
|         430|   -6.146481|   -3.958418|   -3.822598|
|         431|   -6.138708|   -3.955439|   -3.816396|
|         432|   -6.136315|   -3.952956|   -3.812529|
|         433|   -6.137248|   -3.950945|   -3.810349|
|         434|   -6.139743|   -3.949326|   -3.809250|
|         435|   -6.143197|   -3.948061|   -3.808881|
|         436|   -6.147047|   -3.947262|   -3.809109|
|         437|   -6.150966|   -3.946937|   -3.809900|
|         438|   -6.154593|   -3.946974|   -3.811295|
|         439|   -6.157588|   -3.947405|   -3.813316|
|         440|   -6.159855|   -3.948267|   -3.815995|
|         441|   -6.160930|   -3.949562|   -3.819327|
|         442|   -6.162040|   -3.951225|   -3.823239|
|         443|   -6.167587|   -3.953143|   -3.827866|
|         444|   -6.175693|   -3.955246|   -3.833197|
|         445|   -6.183905|   -3.957509|   -3.839106|
|         446|   -6.190659|   -3.959902|   -3.845511|
|         447|   -6.195426|   -3.962412|   -3.852370|
|         448|   -6.198492|   -3.965033|   -3.859638|
|         449|   -6.200366|   -3.967772|   -3.867272|
|         450|   -6.201368|   -3.970678|   -3.875215|
|         451|   -6.201852|   -3.973799|   -3.883404|
|         452|   -6.202236|   -3.977147|   -3.891782|
|         453|   -6.202813|   -3.980726|   -3.900299|
|         454|   -6.204114|   -3.984440|   -3.908907|
|         455|   -6.206536|   -3.988233|   -3.917568|
|         456|   -6.210115|   -3.992028|   -3.926243|
|         457|   -6.214595|   -3.995804|   -3.934904|
|         458|   -6.219672|   -3.999546|   -3.943506|
|         459|   -6.224862|   -4.003244|   -3.951989|
|         460|   -6.229997|   -4.006902|   -3.960302|
|         461|   -6.234784|   -4.010530|   -3.968399|
|         462|   -6.239094|   -4.014102|   -3.976236|
|         463|   -6.242642|   -4.017533|   -3.983779|
|         464|   -6.245324|   -4.020754|   -3.990949|
|         465|   -6.247239|   -4.023764|   -3.997658|
|         466|   -6.248429|   -4.026561|   -4.003883|
|         467|   -6.248992|   -4.029132|   -4.009657|
|         468|   -6.249145|   -4.031475|   -4.015058|
|         469|   -6.249072|   -4.033600|   -4.020194|
|         470|   -6.248924|   -4.035553|   -4.025147|
|         471|   -6.248849|   -4.037396|   -4.029969|
|         472|   -6.248862|   -4.039157|   -4.034665|
|         473|   -6.248821|   -4.040836|   -4.039186|
|         474|   -6.248518|   -4.042425|   -4.043427|
|         475|   -6.247874|   -4.043907|   -4.047271|
|         476|   -6.246981|   -4.045257|   -4.050649|
|         477|   -6.245960|   -4.046468|   -4.053495|
|         478|   -6.245094|   -4.047559|   -4.055789|
|         479|   -6.244319|   -4.048568|   -4.057496|
|         480|   -6.243629|   -4.049509|   -4.058607|
|         481|   -6.243005|   -4.050390|   -4.058860|
|         482|   -6.245364|   -4.051099|   -4.058553|
|         483|   -6.250540|   -4.051592|   -4.057901|
|         484|   -6.257393|   -4.051952|   -4.056940|
|         485|   -6.264646|   -4.052274|   -4.055730|
|         486|   -6.271709|   -4.052660|   -4.054402|
|         487|   -6.278304|   -4.053253|   -4.053126|
|         488|   -6.284425|   -4.054068|   -4.052049|
|         489|   -6.290202|   -4.054974|   -4.051340|
|         490|   -6.295837|   -4.056002|   -4.051079|
|         491|   -6.301555|   -4.057215|   -4.051363|
|         492|   -6.307358|   -4.058525|   -4.052189|
|         493|   -6.313080|   -4.059736|   -4.053325|
|         494|   -6.318850|   -4.060825|   -4.054699|
|         495|   -6.324417|   -4.061889|   -4.056306|
|         496|   -6.329478|   -4.062795|   -4.058025|
|         497|   -6.334278|   -4.063404|   -4.059676|
|         498|   -6.338690|   -4.063643|   -4.061046|
|         499|   -6.342663|   -4.063520|   -4.062022|
|         500|   -6.346168|   -4.063058|   -4.062531|
|         501|   -6.349237|   -4.062271|   -4.062501|
|         502|   -6.351810|   -4.061163|   -4.061849|
|         503|   -6.353883|   -4.059747|   -4.060516|
|         504|   -6.355518|   -4.058052|   -4.058477|
|         505|   -6.356729|   -4.056082|   -4.055703|
|         506|   -6.357509|   -4.053807|   -4.052170|
|         507|   -6.357840|   -4.051198|   -4.047877|
|         508|   -6.357953|   -4.048231|   -4.042871|
|         509|   -6.357606|   -4.044924|   -4.037204|
|         510|   -6.356877|   -4.041332|   -4.031003|
|         511|   -6.355867|   -4.037575|   -4.024453|
|         512|   -6.354655|   -4.033868|   -4.017792|
|         513|   -6.353481|   -4.030496|   -4.011292|
|         514|   -6.352219|   -4.027730|   -4.005201|
|         515|   -6.351063|   -4.025790|   -3.999779|
|         516|   -6.350195|   -4.024810|   -3.995227|
|         517|   -6.349700|   -4.024844|   -3.991677|
|         518|   -6.349658|   -4.025888|   -3.989235|
|         519|   -6.350071|   -4.027860|   -3.987947|
|         520|   -6.351062|   -4.030543|   -3.987744|
|         521|   -6.352470|   -4.033586|   -3.988431|
|         522|   -6.354223|   -4.036696|   -3.989864|
|         523|   -6.356185|   -4.039773|   -3.991924|
|         524|   -6.358425|   -4.042768|   -3.994482|
|         525|   -6.360758|   -4.045572|   -3.997381|
|         526|   -6.363197|   -4.048061|   -4.000477|
|         527|   -6.365758|   -4.050191|   -4.003648|
|         528|   -6.368356|   -4.051982|   -4.006801|
|         529|   -6.370923|   -4.053483|   -4.009884|
|         530|   -6.373461|   -4.054747|   -4.012879|
|         531|   -6.375833|   -4.055834|   -4.015776|
|         532|   -6.378216|   -4.056816|   -4.018583|
|         533|   -6.380427|   -4.057751|   -4.021273|
|         534|   -6.382571|   -4.058691|   -4.023857|
|         535|   -6.384673|   -4.059683|   -4.026359|
|         536|   -6.386730|   -4.060771|   -4.028803|
|         537|   -6.388752|   -4.061991|   -4.031217|
|         538|   -6.390721|   -4.063386|   -4.033616|
|         539|   -6.392746|   -4.065007|   -4.036022|
|         540|   -6.394655|   -4.066918|   -4.038405|
|         541|   -6.396554|   -4.069144|   -4.040760|
|         542|   -6.398329|   -4.071653|   -4.043040|
|         543|   -6.400007|   -4.074383|   -4.045202|
|         544|   -6.401448|   -4.077260|   -4.047192|
|         545|   -6.402900|   -4.080207|   -4.048999|
|         546|   -6.404140|   -4.083132|   -4.050603|
|         547|   -6.405291|   -4.085964|   -4.052079|
|         548|   -6.406384|   -4.088687|   -4.053517|
|         549|   -6.407510|   -4.091378|   -4.054986|
|         550|   -6.408658|   -4.094087|   -4.056548|
|         551|   -6.409927|   -4.096856|   -4.058298|
|         552|   -6.411393|   -4.099762|   -4.060356|
|         553|   -6.413123|   -4.102904|   -4.062840|
|         554|   -6.415099|   -4.106297|   -4.065841|
|         555|   -6.417326|   -4.109812|   -4.069361|
|         556|   -6.419905|   -4.113220|   -4.073400|
|         557|   -6.422769|   -4.116302|   -4.077925|
|         558|   -6.425850|   -4.118896|   -4.082890|
|         559|   -6.429082|   -4.120904|   -4.088247|
|         560|   -6.432453|   -4.122299|   -4.093926|
|         561|   -6.435957|   -4.123096|   -4.099814|
|         562|   -6.439570|   -4.123321|   -4.105768|
|         563|   -6.443245|   -4.122973|   -4.111650|
|         564|   -6.446967|   -4.122067|   -4.117347|
|         565|   -6.450723|   -4.120664|   -4.122772|
|         566|   -6.454466|   -4.118848|   -4.127842|
|         567|   -6.458153|   -4.116695|   -4.132509|
|         568|   -6.461713|   -4.114209|   -4.136766|
|         569|   -6.465240|   -4.111412|   -4.140486|
|         570|   -6.468661|   -4.108259|   -4.143487|
|         571|   -6.471942|   -4.104605|   -4.145516|
|         572|   -6.475119|   -4.100289|   -4.146327|
|         573|   -6.478037|   -4.095147|   -4.145705|
|         574|   -6.480491|   -4.089127|   -4.143492|
|         575|   -6.482330|   -4.082348|   -4.139592|
|         576|   -6.483273|   -4.074992|   -4.133916|
|         577|   -6.483428|   -4.067222|   -4.126389|
|         578|   -6.482629|   -4.059249|   -4.117070|
|         579|   -6.480901|   -4.051407|   -4.106346|
|         580|   -6.478089|   -4.043974|   -4.094707|
|         581|   -6.474133|   -4.036952|   -4.082465|
|         582|   -6.469025|   -4.030344|   -4.069876|
|         583|   -6.462956|   -4.024219|   -4.057221|
|         584|   -6.456104|   -4.018662|   -4.044782|
|         585|   -6.448714|   -4.013688|   -4.032860|
|         586|   -6.440968|   -4.009250|   -4.021600|
|         587|   -6.433051|   -4.005267|   -4.011000|
|         588|   -6.425165|   -4.001619|   -4.001028|
|         589|   -6.417897|   -3.998180|   -3.991626|
|         590|   -6.412548|   -3.994856|   -3.982865|
|         591|   -6.408999|   -3.991589|   -3.974809|
|         592|   -6.407112|   -3.988410|   -3.967402|
|         593|   -6.406699|   -3.985352|   -3.960667|
|         594|   -6.407130|   -3.982382|   -3.954662|
|         595|   -6.407792|   -3.979470|   -3.949405|
|         596|   -6.408288|   -3.976583|   -3.944908|
|         597|   -6.408545|   -3.973661|   -3.941183|
|         598|   -6.408682|   -3.970654|   -3.938231|
|         599|   -6.408819|   -3.967526|   -3.936040|
|         600|   -6.408743|   -3.964166|   -3.934547|
|         601|   -6.408304|   -3.960432|   -3.933662|
|         602|   -6.407490|   -3.956300|   -3.933273|
|         603|   -6.406441|   -3.951866|   -3.933204|
|         604|   -6.405675|   -3.947196|   -3.933232|
|         605|   -6.405225|   -3.942324|   -3.933182|
|         606|   -6.404860|   -3.937358|   -3.932903|
|         607|   -6.404248|   -3.932467|   -3.932262|
|         608|   -6.403207|   -3.927783|   -3.931189|
|         609|   -6.401774|   -3.923431|   -3.929683|
|         610|   -6.400110|   -3.919543|   -3.927800|
|         611|   -6.398419|   -3.916239|   -3.925632|
|         612|   -6.396773|   -3.913608|   -3.923289|
|         613|   -6.395415|   -3.911688|   -3.920964|
|         614|   -6.394070|   -3.910500|   -3.918783|
|         615|   -6.392823|   -3.909987|   -3.916914|
|         616|   -6.391684|   -3.910067|   -3.915397|
|         617|   -6.390714|   -3.910657|   -3.914183|
|         618|   -6.389952|   -3.911653|   -3.913156|
|         619|   -6.389517|   -3.912910|   -3.912185|
|         620|   -6.389255|   -3.914268|   -3.911142|
|         621|   -6.389216|   -3.915568|   -3.909960|
|         622|   -6.389087|   -3.916674|   -3.908607|
|         623|   -6.388865|   -3.917466|   -3.907115|
|         624|   -6.388382|   -3.917830|   -3.905549|
|         625|   -6.387548|   -3.917682|   -3.903947|
|         626|   -6.386335|   -3.916970|   -3.902316|
|         627|   -6.385013|   -3.915650|   -3.900655|
|         628|   -6.384129|   -3.913697|   -3.898949|
|         629|   -6.383539|   -3.911086|   -3.897180|
|         630|   -6.382852|   -3.907818|   -3.895290|
|         631|   -6.381878|   -3.903903|   -3.893225|
|         632|   -6.380523|   -3.899385|   -3.890887|
|         633|   -6.378765|   -3.894337|   -3.888154|
|         634|   -6.376619|   -3.888821|   -3.884935|
|         635|   -6.374335|   -3.882912|   -3.881196|
|         636|   -6.372128|   -3.876780|   -3.876981|
|         637|   -6.370014|   -3.870647|   -3.872416|
|         638|   -6.368180|   -3.864781|   -3.867647|
|         639|   -6.366559|   -3.859417|   -3.862857|
|         640|   -6.365182|   -3.854797|   -3.858166|
|         641|   -6.364169|   -3.851155|   -3.853724|
|         642|   -6.363488|   -3.848673|   -3.849698|
|         643|   -6.363490|   -3.847457|   -3.846247|
|         644|   -6.364081|   -3.847544|   -3.843525|
|         645|   -6.365240|   -3.848927|   -3.841612|
|         646|   -6.367303|   -3.851578|   -3.840521|
|         647|   -6.370272|   -3.855438|   -3.840264|
|         648|   -6.373824|   -3.860417|   -3.840843|
|         649|   -6.378209|   -3.866306|   -3.842262|
|         650|   -6.382996|   -3.872780|   -3.844536|
|         651|   -6.387669|   -3.879584|   -3.847597|
|         652|   -6.392423|   -3.886563|   -3.851359|
|         653|   -6.397066|   -3.893498|   -3.855750|
|         654|   -6.401776|   -3.900222|   -3.860696|
|         655|   -6.406673|   -3.906636|   -3.866172|
|         656|   -6.412414|   -3.912684|   -3.872116|
|         657|   -6.418798|   -3.918359|   -3.878448|
|         658|   -6.425463|   -3.923707|   -3.885036|
|         659|   -6.432163|   -3.928767|   -3.891734|
|         660|   -6.437895|   -3.933554|   -3.898372|
|         661|   -6.441935|   -3.938043|   -3.904729|
|         662|   -6.444275|   -3.942110|   -3.910640|
|         663|   -6.444726|   -3.945588|   -3.916069|
|         664|   -6.443373|   -3.948375|   -3.921060|
|         665|   -6.440593|   -3.950507|   -3.925671|
|         666|   -6.436833|   -3.952138|   -3.929934|
|         667|   -6.432278|   -3.953453|   -3.933839|
|         668|   -6.426960|   -3.954607|   -3.937338|
|         669|   -6.420915|   -3.955691|   -3.940352|
|         670|   -6.414244|   -3.956690|   -3.942704|
|         671|   -6.408261|   -3.957477|   -3.944124|
|         672|   -6.403284|   -3.957820|   -3.944407|
|         673|   -6.398558|   -3.957462|   -3.943376|
|         674|   -6.393707|   -3.956203|   -3.940860|
|         675|   -6.388508|   -3.953902|   -3.936804|
|         676|   -6.382651|   -3.950470|   -3.931280|
|         677|   -6.376060|   -3.945927|   -3.924449|
|         678|   -6.368830|   -3.940471|   -3.916501|
|         679|   -6.361164|   -3.934472|   -3.907703|
|         680|   -6.353241|   -3.928404|   -3.898379|
|         681|   -6.346279|   -3.922698|   -3.889086|
|         682|   -6.340569|   -3.917692|   -3.880468|
|         683|   -6.335649|   -3.913666|   -3.872964|
|         684|   -6.331072|   -3.910570|   -3.866747|
|         685|   -6.326720|   -3.908171|   -3.861804|
|         686|   -6.322336|   -3.906444|   -3.858134|
|         687|   -6.317731|   -3.905383|   -3.855695|
|         688|   -6.313424|   -3.904825|   -3.854270|
|         689|   -6.310686|   -3.904590|   -3.853676|
|         690|   -6.308782|   -3.904559|   -3.853715|
|         691|   -6.307456|   -3.904667|   -3.854274|
|         692|   -6.305972|   -3.904843|   -3.855193|
|         693|   -6.304215|   -3.905045|   -3.856366|
|         694|   -6.302190|   -3.905244|   -3.857709|
|         695|   -6.300056|   -3.905390|   -3.859145|
|         696|   -6.297943|   -3.905432|   -3.860552|
|         697|   -6.296583|   -3.905280|   -3.861898|
|         698|   -6.296076|   -3.904859|   -3.863155|
|         699|   -6.296010|   -3.904130|   -3.864246|
|         700|   -6.296391|   -3.903072|   -3.865124|
|         701|   -6.297269|   -3.901697|   -3.865770|
|         702|   -6.298338|   -3.900044|   -3.866154|
|         703|   -6.299216|   -3.898183|   -3.866220|
|         704|   -6.299766|   -3.896211|   -3.865915|
|         705|   -6.299974|   -3.894224|   -3.865241|
|         706|   -6.300012|   -3.892312|   -3.864250|
|         707|   -6.300135|   -3.890555|   -3.863013|
|         708|   -6.300325|   -3.889006|   -3.861588|
|         709|   -6.300582|   -3.887675|   -3.860051|
|         710|   -6.300838|   -3.886541|   -3.858449|
|         711|   -6.301154|   -3.885562|   -3.856849|
|         712|   -6.301463|   -3.884693|   -3.855303|
|         713|   -6.301793|   -3.883892|   -3.853867|
|         714|   -6.302138|   -3.883129|   -3.852587|
|         715|   -6.302538|   -3.882383|   -3.851499|
|         716|   -6.302992|   -3.881643|   -3.850635|
|         717|   -6.303446|   -3.880920|   -3.850014|
|         718|   -6.303927|   -3.880241|   -3.849643|
|         719|   -6.304395|   -3.879681|   -3.849518|
|         720|   -6.304817|   -3.879371|   -3.849646|
|         721|   -6.305076|   -3.879411|   -3.850020|
|         722|   -6.305100|   -3.879768|   -3.850602|
|         723|   -6.304852|   -3.880346|   -3.851336|
|         724|   -6.304329|   -3.881107|   -3.852218|
|         725|   -6.303601|   -3.882100|   -3.853287|
|         726|   -6.302675|   -3.883387|   -3.854592|
|         727|   -6.301643|   -3.885009|   -3.856192|
|         728|   -6.300555|   -3.886958|   -3.858064|
|         729|   -6.299445|   -3.889180|   -3.860118|
|         730|   -6.298351|   -3.891554|   -3.862270|
|         731|   -6.297319|   -3.893993|   -3.864493|
|         732|   -6.296407|   -3.896432|   -3.866754|
|         733|   -6.295441|   -3.898829|   -3.868994|
|         734|   -6.294629|   -3.901109|   -3.871193|
|         735|   -6.293842|   -3.903234|   -3.873289|
|         736|   -6.293433|   -3.905104|   -3.875285|
|         737|   -6.293142|   -3.906696|   -3.877107|
|         738|   -6.293120|   -3.907989|   -3.878742|
|         739|   -6.293299|   -3.908993|   -3.880152|
|         740|   -6.293543|   -3.909731|   -3.881278|
|         741|   -6.293844|   -3.910251|   -3.882077|
|         742|   -6.294241|   -3.910562|   -3.882524|
|         743|   -6.294840|   -3.910656|   -3.882554|
|         744|   -6.296288|   -3.910527|   -3.882166|
|         745|   -6.298467|   -3.910188|   -3.881398|
|         746|   -6.301051|   -3.909715|   -3.880279|
|         747|   -6.303698|   -3.909227|   -3.878846|
|         748|   -6.306232|   -3.908835|   -3.877142|
|         749|   -6.308582|   -3.908605|   -3.875209|
|         750|   -6.310707|   -3.908578|   -3.873108|
|         751|   -6.312399|   -3.908820|   -3.870992|
|         752|   -6.313588|   -3.909403|   -3.869033|
|         753|   -6.314400|   -3.910364|   -3.867347|
|         754|   -6.314761|   -3.911689|   -3.865994|
|         755|   -6.314520|   -3.913343|   -3.865011|
|         756|   -6.313738|   -3.915307|   -3.864461|
|         757|   -6.312362|   -3.917565|   -3.864403|
|         758|   -6.310705|   -3.920085|   -3.864889|
|         759|   -6.308804|   -3.922827|   -3.865942|
|         760|   -6.306541|   -3.925784|   -3.867551|
|         761|   -6.303833|   -3.928947|   -3.869660|
|         762|   -6.300749|   -3.932277|   -3.872226|
|         763|   -6.297539|   -3.935722|   -3.875256|
|         764|   -6.294331|   -3.939292|   -3.878741|
|         765|   -6.291124|   -3.942966|   -3.882652|
|         766|   -6.288510|   -3.946613|   -3.886945|
|         767|   -6.286598|   -3.950045|   -3.891569|
|         768|   -6.285072|   -3.953138|   -3.896460|
|         769|   -6.283730|   -3.955794|   -3.901449|
|         770|   -6.282193|   -3.957838|   -3.906384|
|         771|   -6.280556|   -3.959098|   -3.911114|
|         772|   -6.279360|   -3.959450|   -3.915534|
|         773|   -6.279165|   -3.958827|   -3.919539|
|         774|   -6.279527|   -3.957185|   -3.922994|
|         775|   -6.279792|   -3.954528|   -3.925699|
|         776|   -6.279378|   -3.951057|   -3.927477|
|         777|   -6.277644|   -3.947097|   -3.928227|
|         778|   -6.274556|   -3.942954|   -3.927896|
|         779|   -6.272264|   -3.938970|   -3.926577|
|         780|   -6.272338|   -3.935516|   -3.924631|
|         781|   -6.273359|   -3.932853|   -3.922421|
|         782|   -6.274321|   -3.931161|   -3.920147|
|         783|   -6.274506|   -3.930559|   -3.917956|
|         784|   -6.273446|   -3.931122|   -3.915943|
|         785|   -6.272840|   -3.932838|   -3.914095|
|         786|   -6.274902|   -3.935532|   -3.912506|
|         787|   -6.279329|   -3.938953|   -3.911219|
|         788|   -6.285202|   -3.942876|   -3.910180|
|         789|   -6.291703|   -3.947121|   -3.909301|
|         790|   -6.298168|   -3.951578|   -3.908540|
|         791|   -6.304062|   -3.956153|   -3.907834|
|         792|   -6.309260|   -3.960815|   -3.907186|
|         793|   -6.313930|   -3.965488|   -3.906626|
|         794|   -6.318301|   -3.970081|   -3.906196|
|         795|   -6.322127|   -3.974477|   -3.905899|
|         796|   -6.325362|   -3.978584|   -3.905725|
|         797|   -6.328150|   -3.982340|   -3.905676|
|         798|   -6.330402|   -3.985736|   -3.905771|
|         799|   -6.332025|   -3.988766|   -3.905952|
|         800|   -6.333301|   -3.991435|   -3.906173|
|         801|   -6.334013|   -3.993698|   -3.906398|
|         802|   -6.334155|   -3.995526|   -3.906639|
|         803|   -6.334122|   -3.996951|   -3.906935|
|         804|   -6.333914|   -3.998029|   -3.907304|
|         805|   -6.333525|   -3.998876|   -3.907767|
|         806|   -6.332984|   -3.999572|   -3.908393|
|         807|   -6.332248|   -4.000098|   -3.909224|
|         808|   -6.331657|   -4.000490|   -3.910372|
|         809|   -6.331487|   -4.000871|   -3.912037|
|         810|   -6.331872|   -4.001345|   -3.914401|
|         811|   -6.332900|   -4.001873|   -3.917504|
|         812|   -6.334683|   -4.002329|   -3.921321|
|         813|   -6.337147|   -4.002648|   -3.925819|
|         814|   -6.340150|   -4.002787|   -3.930953|
|         815|   -6.343778|   -4.002684|   -3.936573|
|         816|   -6.347649|   -4.002294|   -3.942463|
|         817|   -6.351888|   -4.001636|   -3.948402|
|         818|   -6.356147|   -4.000731|   -3.954213|
|         819|   -6.360255|   -3.999614|   -3.959716|
|         820|   -6.363804|   -3.998377|   -3.964793|
|         821|   -6.366650|   -3.997150|   -3.969399|
|         822|   -6.368696|   -3.996061|   -3.973548|
|         823|   -6.370250|   -3.995187|   -3.977319|
|         824|   -6.371438|   -3.994525|   -3.980854|
|         825|   -6.372567|   -3.994110|   -3.984334|
|         826|   -6.373757|   -3.994044|   -3.987939|
|         827|   -6.375333|   -3.994379|   -3.991767|
|         828|   -6.377208|   -3.995050|   -3.995881|
|         829|   -6.379265|   -3.995991|   -4.000341|
|         830|   -6.381492|   -3.997159|   -4.005124|
|         831|   -6.383715|   -3.998490|   -4.010151|
|         832|   -6.385948|   -3.999964|   -4.015259|
|         833|   -6.387734|   -4.001543|   -4.020269|
|         834|   -6.388952|   -4.003198|   -4.024955|
|         835|   -6.389592|   -4.004894|   -4.029079|
|         836|   -6.389768|   -4.006619|   -4.032458|
|         837|   -6.389494|   -4.008395|   -4.034973|
|         838|   -6.388922|   -4.010242|   -4.036567|
|         839|   -6.388268|   -4.012160|   -4.037279|
|         840|   -6.387792|   -4.014196|   -4.037207|
|         841|   -6.387680|   -4.016368|   -4.036499|
|         842|   -6.388140|   -4.018651|   -4.035367|
|         843|   -6.389268|   -4.021026|   -4.034045|
|         844|   -6.391330|   -4.023501|   -4.032760|
|         845|   -6.393930|   -4.026127|   -4.031667|
|         846|   -6.396715|   -4.028845|   -4.030835|
|         847|   -6.399558|   -4.031546|   -4.030228|
|         848|   -6.402404|   -4.034164|   -4.029914|
|         849|   -6.405012|   -4.036733|   -4.030027|
|         850|   -6.407140|   -4.039307|   -4.030603|
|         851|   -6.408691|   -4.041814|   -4.031598|
|         852|   -6.409581|   -4.044145|   -4.032917|
|         853|   -6.409853|   -4.046227|   -4.034506|
|         854|   -6.409578|   -4.048018|   -4.036351|
|         855|   -6.408768|   -4.049494|   -4.038459|
|         856|   -6.407272|   -4.050668|   -4.040772|
|         857|   -6.404916|   -4.051516|   -4.043173|
|         858|   -6.401650|   -4.051947|   -4.045509|
|         859|   -6.397856|   -4.051918|   -4.047711|
|         860|   -6.393463|   -4.051441|   -4.049767|
|         861|   -6.388605|   -4.050561|   -4.051679|
|         862|   -6.383029|   -4.049273|   -4.053295|
|         863|   -6.377024|   -4.047551|   -4.054513|
|         864|   -6.370938|   -4.045435|   -4.055280|
|         865|   -6.364725|   -4.042993|   -4.055508|
|         866|   -6.358754|   -4.040265|   -4.055243|
|         867|   -6.353042|   -4.037312|   -4.054498|
|         868|   -6.347707|   -4.034239|   -4.053278|
|         869|   -6.342693|   -4.031142|   -4.051481|
|         870|   -6.338239|   -4.028003|   -4.049020|
|         871|   -6.334596|   -4.024847|   -4.045900|
|         872|   -6.331698|   -4.021752|   -4.042249|
|         873|   -6.329469|   -4.018910|   -4.038206|
|         874|   -6.327891|   -4.016445|   -4.033904|
|         875|   -6.326748|   -4.014355|   -4.029479|
|         876|   -6.326131|   -4.012666|   -4.025127|
|         877|   -6.325652|   -4.011411|   -4.020964|
|         878|   -6.325482|   -4.010643|   -4.017130|
|         879|   -6.325569|   -4.010324|   -4.013822|
|         880|   -6.325924|   -4.010464|   -4.011129|
|         881|   -6.326647|   -4.011007|   -4.009030|
|         882|   -6.327740|   -4.011851|   -4.007470|
|         883|   -6.329511|   -4.012919|   -4.006409|
|         884|   -6.331986|   -4.014142|   -4.005862|
|         885|   -6.335186|   -4.015463|   -4.005907|
|         886|   -6.339072|   -4.016878|   -4.006557|
|         887|   -6.343638|   -4.018338|   -4.007776|
|         888|   -6.348819|   -4.019735|   -4.009505|
|         889|   -6.354510|   -4.021003|   -4.011721|
|         890|   -6.360594|   -4.022169|   -4.014381|
|         891|   -6.366891|   -4.023281|   -4.017395|
|         892|   -6.373184|   -4.024362|   -4.020630|
|         893|   -6.379312|   -4.025455|   -4.023905|
|         894|   -6.385073|   -4.026599|   -4.027066|
|         895|   -6.390364|   -4.027782|   -4.030008|
|         896|   -6.395421|   -4.028940|   -4.032679|
|         897|   -6.400353|   -4.029984|   -4.035167|
|         898|   -6.405327|   -4.030868|   -4.037730|
|         899|   -6.410338|   -4.031626|   -4.040547|
|         900|   -6.415406|   -4.032291|   -4.043591|
|         901|   -6.420362|   -4.032839|   -4.046635|
|         902|   -6.425029|   -4.033279|   -4.049400|
|         903|   -6.429241|   -4.033675|   -4.051689|
|         904|   -6.432959|   -4.034104|   -4.053401|
|         905|   -6.436124|   -4.034628|   -4.054520|
|         906|   -6.438793|   -4.035273|   -4.055123|
|         907|   -6.440950|   -4.036053|   -4.055384|
|         908|   -6.442641|   -4.036889|   -4.055582|
|         909|   -6.444051|   -4.037615|   -4.055960|
|         910|   -6.445686|   -4.038068|   -4.056648|
|         911|   -6.447600|   -4.038220|   -4.057642|
|         912|   -6.449637|   -4.038175|   -4.058857|
|         913|   -6.451671|   -4.038077|   -4.060105|
|         914|   -6.453561|   -4.037984|   -4.061152|
|         915|   -6.455098|   -4.037897|   -4.061806|
|         916|   -6.456187|   -4.037851|   -4.061978|
|         917|   -6.456840|   -4.037905|   -4.061684|
|         918|   -6.457142|   -4.038100|   -4.061029|
|         919|   -6.457125|   -4.038374|   -4.060152|
|         920|   -6.457020|   -4.038609|   -4.059170|
|         921|   -6.456829|   -4.038648|   -4.058152|
|         922|   -6.456630|   -4.038341|   -4.057107|
|         923|   -6.456530|   -4.037606|   -4.055984|
|         924|   -6.456655|   -4.036495|   -4.054738|
|         925|   -6.456876|   -4.035145|   -4.053349|
|         926|   -6.457077|   -4.033697|   -4.051799|
|         927|   -6.457225|   -4.032259|   -4.050063|
|         928|   -6.457273|   -4.030880|   -4.048150|
|         929|   -6.457167|   -4.029581|   -4.046096|
|         930|   -6.456981|   -4.028370|   -4.043973|
|         931|   -6.456912|   -4.027220|   -4.041899|
|         932|   -6.456910|   -4.026100|   -4.039989|
|         933|   -6.457032|   -4.024969|   -4.038321|
|         934|   -6.457193|   -4.023821|   -4.036902|
|         935|   -6.457115|   -4.022631|   -4.035639|
|         936|   -6.456813|   -4.021352|   -4.034436|
|         937|   -6.456337|   -4.019971|   -4.033227|
|         938|   -6.455645|   -4.018560|   -4.031985|
|         939|   -6.454643|   -4.017192|   -4.030691|
|         940|   -6.453345|   -4.015863|   -4.029320|
|         941|   -6.451788|   -4.014524|   -4.027855|
|         942|   -6.449984|   -4.013119|   -4.026278|
|         943|   -6.447978|   -4.011622|   -4.024603|
|         944|   -6.445918|   -4.010031|   -4.022853|
|         945|   -6.443797|   -4.008378|   -4.021066|
|         946|   -6.441584|   -4.006681|   -4.019261|
|         947|   -6.439179|   -4.004954|   -4.017421|
|         948|   -6.436395|   -4.003177|   -4.015486|
|         949|   -6.433224|   -4.001303|   -4.013379|
|         950|   -6.429923|   -3.999301|   -4.011062|
|         951|   -6.426480|   -3.997171|   -4.008528|
|         952|   -6.422729|   -3.994920|   -4.005787|
|         953|   -6.418707|   -3.992537|   -4.002835|
|         954|   -6.414309|   -3.989987|   -3.999648|
|         955|   -6.409503|   -3.987243|   -3.996185|
|         956|   -6.404313|   -3.984324|   -3.992400|
|         957|   -6.398826|   -3.981263|   -3.988272|
|         958|   -6.393105|   -3.978111|   -3.983791|
|         959|   -6.387146|   -3.974899|   -3.978981|
|         960|   -6.381246|   -3.971624|   -3.973893|
|         961|   -6.375420|   -3.968259|   -3.968592|
|         962|   -6.369544|   -3.964755|   -3.963129|
|         963|   -6.363769|   -3.961052|   -3.957557|
|         964|   -6.358146|   -3.957141|   -3.951927|
|         965|   -6.352578|   -3.953088|   -3.946291|
|         966|   -6.347010|   -3.948985|   -3.940716|
|         967|   -6.341438|   -3.944910|   -3.935263|
|         968|   -6.335853|   -3.940910|   -3.929975|
|         969|   -6.330401|   -3.937039|   -3.924850|
|         970|   -6.325913|   -3.933379|   -3.919949|
|         971|   -6.322232|   -3.929974|   -3.915375|
|         972|   -6.318806|   -3.926846|   -3.911168|
|         973|   -6.315285|   -3.924002|   -3.907353|
|         974|   -6.311460|   -3.921422|   -3.903957|
|         975|   -6.307210|   -3.919079|   -3.901002|
|         976|   -6.302644|   -3.916965|   -3.898478|
|         977|   -6.297754|   -3.915058|   -3.896323|
|         978|   -6.292751|   -3.913328|   -3.894470|
|         979|   -6.287731|   -3.911762|   -3.892852|
|         980|   -6.282843|   -3.910384|   -3.891449|
|         981|   -6.278512|   -3.909237|   -3.890254|
|         982|   -6.275035|   -3.908327|   -3.889291|
|         983|   -6.272539|   -3.907635|   -3.888563|
|         984|   -6.270777|   -3.907145|   -3.888017|
|         985|   -6.269648|   -3.906832|   -3.887633|
|         986|   -6.269023|   -3.906670|   -3.887404|
|         987|   -6.268882|   -3.906633|   -3.887326|
|         988|   -6.269228|   -3.906698|   -3.887370|
|         989|   -6.270061|   -3.906853|   -3.887499|
|         990|   -6.271344|   -3.907095|   -3.887650|
|         991|   -6.273019|   -3.907428|   -3.887770|
|         992|   -6.275071|   -3.907857|   -3.887802|
|         993|   -6.277599|   -3.908361|   -3.887723|
|         994|   -6.280571|   -3.908923|   -3.887515|
|         995|   -6.284005|   -3.909492|   -3.887193|
|         996|   -6.287830|   -3.910027|   -3.886768|
|         997|   -6.292029|   -3.910473|   -3.886255|
|         998|   -6.296468|   -3.910788|   -3.885654|
|         999|   -6.301018|   -3.910940|   -3.884948|
|        1000|   -6.305551|   -3.910917|   -3.884111|
|        1001|   -6.310033|   -3.910697|   -3.883138|
|        1002|   -6.314323|   -3.910288|   -3.882025|
|        1003|   -6.318452|   -3.909701|   -3.880801|
|        1004|   -6.322157|   -3.908985|   -3.879460|
|        1005|   -6.325498|   -3.908168|   -3.878016|
|        1006|   -6.328418|   -3.907262|   -3.876457|
|        1007|   -6.330961|   -3.906276|   -3.874771|
|        1008|   -6.333261|   -3.905267|   -3.872965|
|        1009|   -6.335357|   -3.904293|   -3.871075|
|        1010|   -6.337584|   -3.903385|   -3.869148|
|        1011|   -6.340404|   -3.902538|   -3.867251|
|        1012|   -6.343779|   -3.901738|   -3.865444|
|        1013|   -6.347351|   -3.901013|   -3.863768|
|        1014|   -6.350902|   -3.900410|   -3.862269|
|        1015|   -6.354167|   -3.899938|   -3.860996|
|        1016|   -6.357072|   -3.899594|   -3.859976|
|        1017|   -6.359550|   -3.899389|   -3.859223|
|        1018|   -6.361564|   -3.899335|   -3.858738|
|        1019|   -6.363021|   -3.899438|   -3.858498|
|        1020|   -6.363920|   -3.899693|   -3.858440|
|        1021|   -6.364223|   -3.900097|   -3.858481|
|        1022|   -6.364006|   -3.900647|   -3.858570|
|        1023|   -6.363302|   -3.901345|   -3.858672|
|        1024|   -6.362101|   -3.902149|   -3.858782|
|        1025|   -6.360523|   -3.903042|   -3.858860|
|        1026|   -6.358560|   -3.903963|   -3.858870|
|        1027|   -6.356310|   -3.904869|   -3.858778|
|        1028|   -6.353885|   -3.905717|   -3.858575|
|        1029|   -6.351343|   -3.906477|   -3.858254|
|        1030|   -6.348835|   -3.907118|   -3.857839|
|        1031|   -6.346389|   -3.907651|   -3.857345|
|        1032|   -6.344120|   -3.908094|   -3.856793|
|        1033|   -6.342050|   -3.908469|   -3.856186|
|        1034|   -6.340018|   -3.908771|   -3.855506|
|        1035|   -6.338053|   -3.909021|   -3.854735|
|        1036|   -6.336158|   -3.909267|   -3.853880|
|        1037|   -6.334312|   -3.909544|   -3.852968|
|        1038|   -6.332513|   -3.909866|   -3.852033|
|        1039|   -6.330784|   -3.910222|   -3.851106|
|        1040|   -6.329162|   -3.910604|   -3.850196|
|        1041|   -6.327693|   -3.910985|   -3.849309|
|        1042|   -6.326484|   -3.911355|   -3.848461|
|        1043|   -6.325429|   -3.911707|   -3.847660|
|        1044|   -6.324757|   -3.911997|   -3.846980|
|        1045|   -6.324413|   -3.912230|   -3.846460|
|        1046|   -6.324387|   -3.912436|   -3.846153|
|        1047|   -6.324597|   -3.912663|   -3.846108|
|        1048|   -6.325220|   -3.912962|   -3.846370|
|        1049|   -6.326055|   -3.913389|   -3.846937|
|        1050|   -6.327206|   -3.913966|   -3.847819|
|        1051|   -6.328518|   -3.914732|   -3.848997|
|        1052|   -6.330112|   -3.915709|   -3.850467|
|        1053|   -6.331907|   -3.916938|   -3.852224|
|        1054|   -6.333897|   -3.918418|   -3.854264|
|        1055|   -6.335963|   -3.920119|   -3.856556|
|        1056|   -6.338031|   -3.921982|   -3.859053|
|        1057|   -6.340093|   -3.923962|   -3.861711|
|        1058|   -6.342091|   -3.926029|   -3.864500|
|        1059|   -6.344037|   -3.928174|   -3.867412|
|        1060|   -6.345989|   -3.930397|   -3.870451|
|        1061|   -6.347968|   -3.932686|   -3.873624|
|        1062|   -6.349959|   -3.935016|   -3.876937|
|        1063|   -6.351906|   -3.937358|   -3.880392|
|        1064|   -6.353759|   -3.939675|   -3.883985|
|        1065|   -6.355576|   -3.941950|   -3.887710|
|        1066|   -6.357370|   -3.944165|   -3.891567|
|        1067|   -6.359091|   -3.946300|   -3.895548|
|        1068|   -6.360693|   -3.948327|   -3.899638|
|        1069|   -6.362108|   -3.950230|   -3.903800|
|        1070|   -6.363271|   -3.951972|   -3.907996|
|        1071|   -6.364101|   -3.953565|   -3.912162|
|        1072|   -6.364569|   -3.954997|   -3.916265|
|        1073|   -6.364705|   -3.956250|   -3.920280|
|        1074|   -6.364550|   -3.957330|   -3.924198|
|        1075|   -6.364149|   -3.958247|   -3.928018|
|        1076|   -6.363493|   -3.959038|   -3.931742|
|        1077|   -6.362476|   -3.959709|   -3.935367|
|        1078|   -6.361147|   -3.960289|   -3.938847|
|        1079|   -6.359699|   -3.960790|   -3.942172|
|        1080|   -6.358100|   -3.961218|   -3.945360|
|        1081|   -6.356314|   -3.961574|   -3.948429|
|        1082|   -6.354380|   -3.961847|   -3.951375|
|        1083|   -6.352252|   -3.962029|   -3.954168|
|        1084|   -6.349981|   -3.962112|   -3.956748|
|        1085|   -6.347409|   -3.962133|   -3.959024|
|        1086|   -6.344632|   -3.962090|   -3.960958|
|        1087|   -6.341762|   -3.961955|   -3.962521|
|        1088|   -6.338837|   -3.961699|   -3.963716|
|        1089|   -6.335798|   -3.961320|   -3.964581|
|        1090|   -6.332745|   -3.960841|   -3.965141|
|        1091|   -6.330319|   -3.960241|   -3.965379|
|        1092|   -6.328973|   -3.959476|   -3.965330|
|        1093|   -6.328405|   -3.958546|   -3.965081|
|        1094|   -6.328211|   -3.957466|   -3.964674|
|        1095|   -6.328079|   -3.956191|   -3.964123|
|        1096|   -6.327525|   -3.954681|   -3.963418|
|        1097|   -6.326460|   -3.952945|   -3.962548|
|        1098|   -6.324681|   -3.950990|   -3.961515|
|        1099|   -6.322452|   -3.948793|   -3.960319|
|        1100|   -6.319575|   -3.946311|   -3.958906|
|        1101|   -6.316356|   -3.943503|   -3.957191|
|        1102|   -6.312455|   -3.940337|   -3.955063|
|        1103|   -6.307945|   -3.936826|   -3.952457|
|        1104|   -6.302861|   -3.932982|   -3.949285|
|        1105|   -6.297333|   -3.928756|   -3.945495|
|        1106|   -6.291462|   -3.924090|   -3.941069|
|        1107|   -6.285399|   -3.918918|   -3.936023|
|        1108|   -6.279436|   -3.913218|   -3.930413|
|        1109|   -6.273711|   -3.907079|   -3.924319|
|        1110|   -6.268243|   -3.900664|   -3.917861|
|        1111|   -6.262909|   -3.894166|   -3.911194|
|        1112|   -6.257637|   -3.887832|   -3.904552|
|        1113|   -6.252556|   -3.881954|   -3.898197|
|        1114|   -6.247817|   -3.876803|   -3.892359|
|        1115|   -6.243369|   -3.872544|   -3.887164|
|        1116|   -6.239350|   -3.869253|   -3.882620|
|        1117|   -6.235611|   -3.866938|   -3.878589|
|        1118|   -6.232452|   -3.865508|   -3.874968|
|        1119|   -6.229880|   -3.864837|   -3.871625|
|        1120|   -6.227794|   -3.864772|   -3.868466|
|        1121|   -6.226190|   -3.865175|   -3.865474|
|        1122|   -6.224879|   -3.865909|   -3.862599|
|        1123|   -6.224088|   -3.866912|   -3.859811|
|        1124|   -6.223663|   -3.868151|   -3.857103|
|        1125|   -6.223695|   -3.869591|   -3.854531|
|        1126|   -6.224254|   -3.871188|   -3.852175|
|        1127|   -6.225392|   -3.872911|   -3.850111|
|        1128|   -6.227178|   -3.874763|   -3.848416|
|        1129|   -6.229377|   -3.876734|   -3.847114|
|        1130|   -6.231894|   -3.878827|   -3.846188|
|        1131|   -6.234440|   -3.881013|   -3.845591|
|        1132|   -6.236947|   -3.883252|   -3.845267|
|        1133|   -6.238782|   -3.885442|   -3.845123|
|        1134|   -6.240420|   -3.887493|   -3.845148|
|        1135|   -6.241510|   -3.889321|   -3.845257|
|        1136|   -6.241098|   -3.890864|   -3.845325|
|        1137|   -6.240274|   -3.892057|   -3.845398|
|        1138|   -6.238863|   -3.892804|   -3.845313|
|        1139|   -6.239327|   -3.893025|   -3.845063|
|        1140|   -6.242022|   -3.892634|   -3.844620|
|        1141|   -6.246031|   -3.891628|   -3.843890|
|        1142|   -6.250661|   -3.890091|   -3.842752|
|        1143|   -6.255577|   -3.888136|   -3.841117|
|        1144|   -6.261211|   -3.885886|   -3.839013|
|        1145|   -6.267050|   -3.883450|   -3.836527|
|        1146|   -6.272685|   -3.880999|   -3.833781|
|        1147|   -6.277781|   -3.878714|   -3.830911|
|        1148|   -6.282134|   -3.876709|   -3.828068|
|        1149|   -6.285697|   -3.875015|   -3.825396|
|        1150|   -6.288560|   -3.873624|   -3.823016|
|        1151|   -6.290922|   -3.872496|   -3.821002|
|        1152|   -6.293003|   -3.871579|   -3.819383|
|        1153|   -6.295108|   -3.870793|   -3.818186|
|        1154|   -6.296839|   -3.870063|   -3.817394|
|        1155|   -6.297772|   -3.869322|   -3.816913|
|        1156|   -6.297575|   -3.868513|   -3.816633|
|        1157|   -6.296271|   -3.867612|   -3.816459|
|        1158|   -6.293991|   -3.866614|   -3.816326|
|        1159|   -6.291007|   -3.865528|   -3.816178|
|        1160|   -6.287830|   -3.864367|   -3.815985|
|        1161|   -6.285070|   -3.863158|   -3.815747|
|        1162|   -6.282658|   -3.861930|   -3.815405|
|        1163|   -6.280710|   -3.860719|   -3.814895|
|        1164|   -6.279346|   -3.859549|   -3.814247|
|        1165|   -6.278551|   -3.858445|   -3.813519|
|        1166|   -6.278128|   -3.857461|   -3.812740|
|        1167|   -6.277813|   -3.856649|   -3.811945|
|        1168|   -6.277578|   -3.856056|   -3.811198|
|        1169|   -6.277041|   -3.855690|   -3.810546|
|        1170|   -6.275983|   -3.855540|   -3.810030|
|        1171|   -6.274571|   -3.855581|   -3.809696|
|        1172|   -6.272648|   -3.855795|   -3.809542|
|        1173|   -6.270302|   -3.856163|   -3.809614|
|        1174|   -6.267892|   -3.856660|   -3.810009|
|        1175|   -6.265275|   -3.857261|   -3.810779|
|        1176|   -6.262690|   -3.857935|   -3.811957|
|        1177|   -6.260115|   -3.858639|   -3.813508|
|        1178|   -6.257610|   -3.859343|   -3.815398|
|        1179|   -6.255300|   -3.860031|   -3.817603|
|        1180|   -6.252920|   -3.860673|   -3.820078|
|        1181|   -6.250640|   -3.861249|   -3.822833|
|        1182|   -6.248318|   -3.861745|   -3.825829|
|        1183|   -6.245936|   -3.862170|   -3.829054|
|        1184|   -6.243502|   -3.862525|   -3.832497|
|        1185|   -6.241006|   -3.862797|   -3.836109|
|        1186|   -6.238339|   -3.862951|   -3.839795|
|        1187|   -6.235416|   -3.862961|   -3.843470|
|        1188|   -6.232226|   -3.862811|   -3.847082|
|        1189|   -6.228657|   -3.862520|   -3.850567|
|        1190|   -6.224683|   -3.862112|   -3.853933|
|        1191|   -6.220289|   -3.861589|   -3.857190|
|        1192|   -6.215423|   -3.860968|   -3.860284|
|        1193|   -6.210091|   -3.860265|   -3.863182|
|        1194|   -6.204245|   -3.859457|   -3.865891|
|        1195|   -6.197916|   -3.858542|   -3.868424|
|        1196|   -6.191123|   -3.857527|   -3.870821|
|        1197|   -6.183915|   -3.856429|   -3.873123|
|        1198|   -6.176397|   -3.855258|   -3.875373|
|        1199|   -6.168720|   -3.854039|   -3.877606|
|        1200|   -6.161087|   -3.852797|   -3.879857|
|        1201|   -6.153706|   -3.851572|   -3.882122|
|        1202|   -6.146743|   -3.850409|   -3.884372|
|        1203|   -6.140648|   -3.849358|   -3.886511|
|        1204|   -6.135815|   -3.848484|   -3.888475|
|        1205|   -6.132288|   -3.847850|   -3.890258|
|        1206|   -6.129976|   -3.847510|   -3.891825|
|        1207|   -6.128818|   -3.847516|   -3.893127|
|        1208|   -6.128772|   -3.847884|   -3.894104|
|        1209|   -6.129753|   -3.848611|   -3.894735|
|        1210|   -6.131577|   -3.849656|   -3.895029|
[...]
|        2422|   -2.598954|    3.424980|    3.385600|
|        2423|   -2.587300|    3.436309|    3.380018|
|        2424|   -2.578825|    3.450022|    3.373808|
|        2425|   -2.570492|    3.464736|    3.368686|
|        2426|   -2.561042|    3.479044|    3.366231|
|        2427|   -2.549673|    3.492027|    3.367071|
|        2428|   -2.537067|    3.502969|    3.370734|
|        2429|   -2.524105|    3.511375|    3.376170|
|        2430|   -2.511016|    3.517059|    3.382357|
|        2431|   -2.498046|    3.520085|    3.388746|
|        2432|   -2.485314|    3.520786|    3.395386|
|        2433|   -2.472801|    3.519726|    3.402879|
|        2434|   -2.460399|    3.517655|    3.412114|
|        2435|   -2.447936|    3.515436|    3.423882|
|        2436|   -2.435022|    3.513738|    3.438280|
|        2437|   -2.421582|    3.512920|    3.454660|
|        2438|   -2.407766|    3.513090|    3.471712|
|        2439|   -2.393700|    3.514139|    3.487946|
|        2440|   -2.379411|    3.515712|    3.502011|
|        2441|   -2.364671|    3.517268|    3.512725|
|        2442|   -2.348772|    3.518174|    3.519180|
|        2443|   -2.330824|    3.517970|    3.521123|
|        2444|   -2.310324|    3.516644|    3.519204|
|        2445|   -2.287804|    3.514995|    3.514558|
|        2446|   -2.264692|    3.514467|    3.507882|
|        2447|   -2.242230|    3.516362|    3.499115|
|        2448|   -2.220701|    3.520997|    3.488247|
|        2449|   -2.199924|    3.527743|    3.475964|
|        2450|   -2.180007|    3.535593|    3.463441|
|        2451|   -2.161354|    3.543564|    3.451884|
|        2452|   -2.144190|    3.550945|    3.442092|
|        2453|   -2.128298|    3.557427|    3.434465|
|        2454|   -2.112742|    3.563104|    3.429486|
|        2455|   -2.095791|    3.568656|    3.427916|
|        2456|   -2.075506|    3.575011|    3.430771|
|        2457|   -2.050066|    3.583143|    3.438749|
|        2458|   -2.018316|    3.593755|    3.451824|
|        2459|   -1.980573|    3.607098|    3.469296|
|        2460|   -1.938456|    3.622867|    3.490179|
|        2461|   -1.894226|    3.640390|    3.513467|
|        2462|   -1.850320|    3.658858|    3.538299|
|        2463|   -1.809095|    3.677486|    3.563907|
|        2464|   -1.772523|    3.695597|    3.589486|
|        2465|   -1.741517|    3.712791|    3.614150|
|        2466|   -1.714807|    3.729153|    3.637154|
|        2467|   -1.687544|    3.745301|    3.658401|
|        2468|   -1.651014|    3.762361|    3.678894|
|        2469|   -1.595785|    3.781796|    3.700848|
|        2470|   -1.516774|    3.805429|    3.727318|
|        2471|   -1.413960|    3.835974|    3.762569|
|        2472|   -1.288930|    3.878517|    3.814178|
|        2473|   -1.144395|    3.943173|    3.895385|
|        2474|   -0.989441|    4.041439|    4.017860|
|        2475|   -0.918706|    4.133101|    4.193798|
|        2476|   -0.845464|    4.539047|    4.373645|
|        2477|   -0.442556|    4.816832|    4.645054|
|        2478|   -0.286978|    4.702511|    5.042766|
|        2479|   -0.072984|    4.900291|    5.254412|
|        2480|    0.311882|    5.360492|    5.532088|
|        2481|    0.530326|    5.437674|    5.639438|
|        2482|    0.723489|    5.595788|    5.806231|
|        2483|    0.734244|    5.742686|    5.812863|
|        2484|    0.717936|    5.760968|    5.817463|
|        2485|    0.825665|    5.884019|    5.899506|
|        2486|    1.600440|    6.471345|    6.428429|
|        2487|    1.639951|    6.525800|    6.668756|
|        2488|    2.461875|    7.224834|    7.140890|
|        2489|    2.563739|    8.233413|    7.920143|
|        2490|    2.582810|    7.986849|    7.655599|
|        2491|    2.594744|    7.888432|    7.657874|
|        2492|    2.617642|    7.661725|    7.532985|
|        2493|    2.635367|    7.651644|    7.584931|
|        2494|    2.652721|    8.046208|    8.301051|
|        2495|    2.655683|    7.983901|    8.095795|
|        2496|    2.660234|    7.939751|    7.569016|
|        2497|    2.672112|    8.096238|    7.707335|
|        2498|    2.681256|    8.106673|    7.725403|
|        2499|    2.717273|    8.361478|    7.898547|
|        2500|    2.709259|    8.233097|    8.070301|
|        2501|    2.720853|    8.324550|    7.979214|
|        2502|    2.756846|    8.337426|    7.997296|
|        2503|    2.759183|    8.307868|    7.983773|
|        2504|    2.975861|    8.334647|    8.113102|
|        2505|    2.974315|    8.328495|    8.108447|
|        2506|    2.968079|    8.373224|    8.324184|
|        2507|    2.952793|    8.452092|    8.448747|
|        2508|    2.939635|    8.501397|    8.533144|
|        2509|    2.929765|    8.893940|    8.977044|
|        2510|    2.929621|    8.857156|    9.138464|
|        2511|    2.923550|    8.644190|    8.914951|
|        2512|    2.916123|    9.657514|    9.956247|
|        2513|    2.990977|   11.271037|   11.647667|
|        2514|    2.991196|   10.898955|   11.008312|
|        2515|    2.991801|   10.893991|   11.013626|
|        2516|    2.992080|   10.314777|   10.418895|
|        2517|    2.990515|   10.211490|   10.292761|
|        2518|    2.989174|   10.206303|   10.278760|
|        2519|    2.988254|   10.292858|   10.358452|
|        2520|    2.987664|   10.431809|   10.948404|
|        2521|    2.987252|   10.221021|   10.713153|
|        2522|    2.985984|   10.445817|   10.968769|
|        2523|    2.985712|   10.251577|   10.752135|
|        2524|    2.984965|   10.425695|   10.942973|
|        2525|    2.984721|   10.254951|   10.754048|
|        2526|    2.984273|   10.389566|   10.908082|
|        2527|    2.984037|   10.249191|   10.754168|
|        2528|    2.984016|   10.367636|   10.890072|
|        2529|    2.984142|   10.253707|   10.763425|
|        2530|    2.984419|   10.357401|   10.878862|
|        2531|    2.984663|   10.269926|   10.779798|
|        2532|    2.985135|   10.362844|   10.879616|
|        2533|    2.985382|   10.240352|   10.737481|
|        2534|    2.985779|   10.285773|   10.784572|
|        2535|    2.985783|   10.221277|   10.705868|
|        2536|    2.985667|   10.220757|   10.696382|
|        2537|    2.985237|   10.220384|   10.684388|
|        2538|    2.984597|   10.220268|   10.668563|
|        2539|    2.983373|    9.939679|   10.015544|
|        2540|    2.980652|    9.823203|    9.895581|
|        2541|    2.975921|    9.825138|    9.896582|
|        2542|    2.970600|   10.116289|   10.188541|
|        2543|    2.967791|    9.913713|    9.992675|
|        2544|    2.963688|    9.814745|    9.896870|
|        2545|    2.957878|    9.698268|    9.786602|
|        2546|    2.950381|    9.594897|    9.690067|
|        2547|    2.941424|    9.463281|    9.566399|
|        2548|    2.929806|    9.191621|    9.306397|
|        2549|    2.908774|    9.289812|    9.421018|
|        2550|    2.891808|    9.310733|    9.455925|
|        2551|    2.876848|    9.343421|    9.501312|
|        2552|    2.862610|    9.416419|    9.583469|
|        2553|    2.850094|    9.460076|    9.634606|
|        2554|    2.839679|    9.493780|    9.675802|
|        2555|    2.828614|    9.529763|    9.710328|
|        2556|    2.819793|    9.553624|    9.737760|
|        2557|    2.811526|    9.584309|    9.767567|
|        2558|    2.803386|    9.609110|    9.797794|
|        2559|    2.808520|    9.604799|    9.792791|
|        2560|    2.797009|    9.595159|    9.795033|
|        2561|    2.789787|    9.605822|    9.806542|
|        2562|    2.783145|    9.622344|    9.824258|
|        2563|    2.779698|    9.648080|    9.851377|
|        2564|    2.769306|    9.675562|    9.878743|
|        2565|    2.760207|    9.703182|    9.905163|
|        2566|    2.756786|    9.727268|    9.935429|
|        2567|    2.733402|    9.769266|    9.963399|
|        2568|    2.730871|    9.789326|    9.995864|
|        2569|    2.725765|    9.824598|    9.969138|
|        2570|    2.721459|    9.850661|    9.990651|
|        2571|    2.718613|    9.876618|   10.015608|
|        2572|    2.713885|    9.897230|   10.032354|
|        2573|    2.709352|    9.912941|   10.049620|
|        2574|    2.708797|    9.927536|   10.066200|
|        2575|    2.719883|    9.944523|   10.080799|
|        2576|    2.672656|    9.976056|   10.115651|
|        2577|    2.679513|    9.991619|   10.120097|
|        2578|    2.676493|    9.983982|   10.116787|
|        2579|    2.670900|    9.988541|   10.122895|
|        2580|    2.678777|    9.969225|   10.122763|
|        2581|    2.676621|    9.973159|   10.123647|
|        2582|    2.667939|    9.965099|   10.119863|
|        2583|    2.660152|    9.962852|   10.119284|
|        2584|    2.657008|    9.966343|   10.122656|
|        2585|    2.654143|    9.965225|   10.114108|
|        2586|    2.650852|    9.962384|   10.103566|
|        2587|    2.647282|    9.949039|   10.092194|
|        2588|    2.644681|    9.944717|   10.083336|
|        2589|    2.641203|    9.924515|   10.072379|
|        2590|    2.637713|    9.932581|   10.053009|
|        2591|    2.635165|    9.922978|   10.040890|
|        2592|    2.631843|    9.923565|   10.047685|
|        2593|    2.629360|    9.913982|   10.047366|
|        2594|    2.626928|    9.901071|   10.034069|
|        2595|    2.623877|    9.883692|   10.016713|
|        2596|    2.620761|    9.866702|    9.996740|
|        2597|    2.618849|    9.810419|    9.311682|
|        2598|    2.615047|    9.803094|    9.324636|
|        2599|    2.610888|    9.779711|    9.269045|
|        2600|    2.606560|    9.750718|    9.279811|
|        2601|    2.601348|    9.733396|    9.288602|
|        2602|    2.597339|    9.704822|    9.205438|
|        2603|    2.593362|    9.674248|    9.187063|
|        2604|    2.590195|    9.663157|    9.333489|
|        2605|    2.585221|    9.663665|    9.219835|
|        2606|    2.581981|    9.654196|    9.259283|
|        2607|    2.580579|    9.644828|    9.260439|
|        2608|    2.577523|    9.624329|    9.164439|
|        2609|    2.574954|    9.605098|    9.155406|
|        2610|    2.570987|    9.606573|    9.160003|
|        2611|    2.564671|    9.603005|    9.179860|
|        2612|    2.555076|    9.577926|    9.159916|
|        2613|    2.553530|    9.550157|    9.147055|
|        2614|    2.528359|    9.546372|    9.261926|
|        2615|    2.521204|    9.519753|    9.235096|
|        2616|    2.513196|    9.492655|    9.172761|
|        2617|    2.558822|    9.469986|    9.170772|
|        2618|    2.549497|    9.433142|    9.191945|
|        2619|    2.548847|    9.417458|    9.182781|
|        2620|    2.534603|    9.363613|    9.150040|
|        2621|    2.523094|    9.341933|    9.155330|
|        2622|    2.517773|    9.347516|    9.185990|
|        2623|    2.505658|    9.332186|    9.207158|
|        2624|    2.526287|    9.329491|    9.217966|
|        2625|    2.559794|    9.426125|    9.375718|
|        2626|    2.547721|    9.367309|    9.309271|
|        2627|    2.566466|    9.395452|    9.303646|
|        2628|    2.588142|    9.397783|    9.460399|
|        2629|    2.602527|    9.495652|    9.484535|
|        2630|    2.567368|    9.514417|    9.629257|
|        2631|    2.678980|    9.663675|    9.742347|
|        2632|    2.810883|    9.969907|   10.125056|
|        2633|    2.963918|    9.814121|    9.944041|
|        2634|    3.002019|    9.907276|    9.976480|
|        2635|    3.027020|   10.044340|   10.117685|
|        2636|    3.041457|   10.190634|   10.271090|
|        2637|    3.071110|   10.321397|   10.406665|
|        2638|    3.190009|   10.735582|   10.537412|
|        2639|    3.175615|   10.864059|   10.678528|
|        2640|    3.164897|   11.002861|   10.834548|
|        2641|    3.156043|   11.125105|   10.968084|
|        2642|    3.214066|   11.250142|   11.074342|
|        2643|    3.211260|   11.304186|   11.158694|
|        2644|    3.210883|   11.337981|   11.200030|
|        2645|    3.211626|   11.345269|   11.218716|
|        2646|    3.209177|   11.279963|   11.317482|
|        2647|    3.212291|   11.214423|   11.199232|
|        2648|    3.212299|   11.286880|   11.309504|
|        2649|    3.211809|   11.313106|   11.375980|
|        2650|    3.253224|   11.261351|   11.443736|
|        2651|    3.231481|   12.207073|   12.314727|
|        2652|    3.234574|   12.035016|   12.255191|
|        2653|    3.243261|   12.020253|   12.325040|
|        2654|    3.251104|   12.013221|   12.384877|
|        2655|    3.258589|   12.007178|   12.435744|
|        2656|    3.265584|   12.002299|   12.478809|
|        2657|    3.272578|   11.998417|   12.516133|
|        2658|    3.278746|   11.994646|   12.548858|
|        2659|    3.288321|   12.182121|   12.764789|
|        2660|    3.296015|   12.441542|   13.083929|
|        2661|    3.334775|   12.123423|   12.116251|
|        2662|    3.333006|   12.151059|   12.244779|
|        2663|    3.328586|   11.898925|   12.349912|
|        2664|    3.322441|   12.211739|   12.777420|
|        2665|    3.318534|   12.298472|   12.494391|
|        2666|    3.315954|   12.996589|   12.991640|
|        2667|    3.313470|   13.520932|   13.523974|
|        2668|    3.310676|   14.110703|   14.112190|
|        2669|    3.307421|   14.079007|   14.007803|
|        2670|    3.304123|   14.201931|   13.887982|
|        2671|    3.301281|   14.328239|   14.034713|
|        2672|    3.299148|   15.213710|   15.068797|
|        2673|    3.296692|   15.016061|   14.945670|
|        2674|    3.294062|   15.093341|   14.971754|
|        2675|    3.291529|   15.270826|   15.112492|
|        2676|    3.288958|   15.262389|   15.109897|
|        2677|    3.287194|   14.993009|   14.916798|
|        2678|    3.285955|   15.018487|   14.866264|
|        2679|    3.284704|   15.052662|   14.884408|
|        2680|    3.283396|   15.064311|   14.895184|
|        2681|    3.282154|   15.051007|   14.913686|
|        2682|    3.280956|   15.054227|   14.941668|
|        2683|    3.279838|   15.058205|   14.968575|
|        2684|    3.278775|   15.065992|   14.997874|
|        2685|    3.277714|   15.077945|   15.028792|
|        2686|    3.276597|   15.091938|   15.059150|
|        2687|    3.275394|   15.105787|   15.087319|
|        2688|    3.274095|   15.117135|   15.111274|
|        2689|    3.272719|   15.125523|   15.130976|
|        2690|    3.271300|   15.129844|   15.146732|
|        2691|    3.269859|   15.134594|   15.159788|
|        2692|    3.268438|   15.132121|   15.167399|
|        2693|    3.267083|   15.131091|   15.172563|
|        2694|    3.265828|   15.131888|   15.179290|
|        2695|    3.264689|   15.132781|   15.184771|
|        2696|    3.263650|   15.134639|   15.190020|
|        2697|    3.262714|   15.138875|   15.195720|
|        2698|    3.261873|   15.145449|   15.202268|
|        2699|    3.261116|   15.154062|   15.209981|
|        2700|    3.260431|   15.164598|   15.218907|
|        2701|    3.259801|   15.176883|   15.228887|
|        2702|    3.259216|   15.190607|   15.239370|
|        2703|    3.258659|   15.205483|   15.250317|
|        2704|    3.258122|   15.221377|   15.261852|
|        2705|    3.257596|   15.238091|   15.273650|
|        2706|    3.257079|   15.255388|   15.285318|
|        2707|    3.256567|   15.272981|   15.296600|
|        2708|    3.256067|   15.290568|   15.307277|
|        2709|    3.255589|   15.308223|   15.316162|
|        2710|    3.255146|   15.324926|   15.319229|
|        2711|    3.254754|   15.343631|   15.326867|
|        2712|    3.254426|   15.362263|   15.334343|
|        2713|    3.254169|   15.380639|   15.340548|
|        2714|    3.254023|   15.399498|   15.347156|
|        2715|    3.254006|   15.417856|   15.351870|
|        2716|    3.254048|   15.436555|   15.358329|
|        2717|    3.254163|   15.455629|   15.364358|
|        2718|    3.254371|   15.475131|   15.370796|
|        2719|    3.254684|   15.494967|   15.377883|
|        2720|    3.255109|   15.515170|   15.384680|
|        2721|    3.255658|   15.535785|   15.393176|
|        2722|    3.256333|   15.556726|   15.402675|
|        2723|    3.257140|   15.577930|   15.412925|
|        2724|    3.258086|   15.599370|   15.423940|
|        2725|    3.259181|   15.621014|   15.435712|
|        2726|    3.260414|   15.642962|   15.448232|
|        2727|    3.261838|   15.664772|   15.461427|
|        2728|    3.263464|   15.686734|   15.475405|
|        2729|    3.265304|   15.708910|   15.490551|
|        2730|    3.267371|   15.731170|   15.505940|
|        2731|    3.269695|   15.753572|   15.522657|
|        2732|    3.272310|   15.776221|   15.541710|
|        2733|    3.275210|   15.798823|   15.560216|
|        2734|    3.278467|   15.821427|   15.578256|
|        2735|    3.282086|   15.844210|   15.598253|
|        2736|    3.286115|   15.867108|   15.619892|
|        2737|    3.290668|   15.890143|   15.643951|
|        2738|    3.296099|   15.913400|   15.673613|
|        2739|    3.303619|   15.937185|   15.718968|
|        2740|    4.035344|   16.095744|   16.125363|
|        2741|    4.194258|   17.065514|   17.569113|
|        2742|    4.182251|   16.460182|   17.018242|
|        2743|    4.185588|   17.039865|   17.574764|
|        2744|    4.163983|   16.675931|   16.989707|
|        2745|    4.314723|   16.691580|   17.185414|
|        2746|    4.240159|   16.461953|   16.907248|
|        2747|    4.232320|   16.435891|   16.772943|
|        2748|    4.302170|   16.420761|   16.784578|
|        2749|    4.283685|   16.645195|   16.837809|
|        2750|    4.541598|   17.109717|   16.842057|
|        2751|    4.568474|   17.136363|   17.066973|
|        2752|    4.582224|   17.144431|   17.132771|
|        2753|    4.501667|   17.112398|   16.869918|
|        2754|    4.687496|   17.108951|   17.040253|
|        2755|    4.756572|   17.099284|   17.063495|
|        2756|    4.746646|   17.063094|   17.065891|
|        2757|    4.764248|   17.021843|   17.062728|
|        2758|    4.729240|   16.966938|   17.059734|
|        2759|    4.714287|   17.181067|   17.046124|
|        2760|    4.723556|   17.285424|   17.040339|
|        2761|    4.710914|   17.306266|   17.032861|
|        2762|    4.712546|   17.333131|   17.094509|
|        2763|    4.703412|   17.349264|   17.151304|
|        2764|    4.705467|   17.386813|   17.199352|
|        2765|    5.006934|   18.118946|   17.887268|
|        2766|    4.952746|   18.116010|   18.063958|
|        2767|    4.932204|   18.332463|   18.401837|
|        2768|    4.914554|   17.844561|   17.853106|
|        2769|    4.925026|   17.882143|   17.896193|
|        2770|    5.071456|   18.938916|   18.901123|
|        2771|    5.006487|   18.457048|   18.463073|
|        2772|    5.039551|   18.227163|   18.291278|
|        2773|    5.057550|   18.221486|   18.266010|
|        2774|    5.074449|   17.950101|   17.959645|
|        2775|    5.088756|   18.021519|   17.906738|
|        2776|    5.333970|   18.130533|   17.911878|
|        2777|    5.350139|   18.104767|   17.742019|
|        2778|    5.567229|   18.725912|   18.054507|
|        2779|    5.653189|   18.980644|   18.172527|
|        2780|    5.748967|   19.119218|   18.227440|
|        2781|    5.859806|   19.212052|   18.252754|
|        2782|    5.994659|   19.325832|   18.313544|
|        2783|    6.148853|   19.474970|   18.427589|
|        2784|    6.310808|   19.612246|   18.542494|
|        2785|    6.487035|   19.808769|   18.731629|
|        2786|    6.655078|   19.998073|   18.919576|


Error in "void CSolver::SetResidual_RMS(const CGeometry*, const CConfig*)": 
-------------------------------------------------------------------------
SU2 has diverged (Residual > 10^20 detected).
------------------------------ Error Exit -------------------------------


