scsub> Executing:  'cd /home/hem1dev/Codes/SU2_Github_Mark_Test/SU2/Venturi'


WARNING: CONV_CRITERIA is deprecated. SU2 will choose the criteria automatically based on the CONV_FIELD.
That is, RESIDUAL for any RMS_* BGS_* value, and CAUCHY for coefficients such as DRAG etc.


-------------------------------------------------------------------------
|    ___ _   _ ___                                                      |
|   / __| | | |_  )   Release 7.1.1 "Blackbird"                         |
|   \__ \ |_| |/ /                                                      |
|   |___/\___//___|   Suite (Computational Fluid Dynamics Code)         |
|                                                                       |
-------------------------------------------------------------------------
| SU2 Project Website: https://su2code.github.io                        |
|                                                                       |
| The SU2 Project is maintained by the SU2 Foundation                   |
| (http://su2foundation.org)                                            |
-------------------------------------------------------------------------
| Copyright 2012-2021, SU2 Contributors                                 |
|                                                                       |
| SU2 is free software; you can redistribute it and/or                  |
| modify it under the terms of the GNU Lesser General Public            |
| License as published by the Free Software Foundation; either          |
| version 2.1 of the License, or (at your option) any later version.    |
|                                                                       |
| SU2 is distributed in the hope that it will be useful,                |
| but WITHOUT ANY WARRANTY; without even the implied warranty of        |
| MERCHANTABILITY or FITNESS FOR A PARTICULAR PURPOSE. See the GNU      |
| Lesser General Public License for more details.                       |
|                                                                       |
| You should have received a copy of the GNU Lesser General Public      |
| License along with SU2. If not, see <http://www.gnu.org/licenses/>.   |
-------------------------------------------------------------------------


WARNING: CONV_CRITERIA is deprecated. SU2 will choose the criteria automatically based on the CONV_FIELD.
That is, RESIDUAL for any RMS_* BGS_* value, and CAUCHY for coefficients such as DRAG etc.


Parsing config file for zone 0


WARNING: CONV_CRITERIA is deprecated. SU2 will choose the criteria automatically based on the CONV_FIELD.
That is, RESIDUAL for any RMS_* BGS_* value, and CAUCHY for coefficients such as DRAG etc.


----------------- Physical Case Definition ( Zone 0 ) -------------------
Incompressible RANS equations.
Turbulence model: Menter's SST
Hybrid RANS/LES: No Hybrid RANS/LES
No restart solution, use the values at infinity (freestream).
Dimensional simulation.
The reference area is 1 m^2.
The semi-span will be computed using the max y(3D) value.
The reference length is 1 m.
Input mesh file name: SmallBoxVerification.su2

--------------- Space Numerical Integration ( Zone 0 ) ------------------
Flux difference splitting (FDS) upwind scheme for the flow inviscid terms.
Second order integration in space, with slope limiter.
No slope-limiting method. 
Average of gradients with correction (viscous flow terms).
Average of gradients with correction (viscous turbulence terms).
Gradient for upwind reconstruction: Green-Gauss.
Gradient for viscous and source terms: Green-Gauss.

--------------- Time Numerical Integration  ( Zone 0 ) ------------------
Local time stepping (steady state simulation).
Euler implicit method for the flow equations.
FGMRES is used for solving the linear system.
Using a ILU(0) preconditioning.
Convergence criteria of the linear solver: 1e-08.
Max number of linear iterations: 30.
No CFL adaptation.
Courant-Friedrichs-Lewy number:       10
Euler implicit time integration for the turbulence model.

------------------ Convergence Criteria  ( Zone 0 ) ---------------------
Maximum number of solver subiterations: 20000.
Begin convergence monitoring at iteration 10.
Residual minimum value: 1e-10.
Cauchy series min. value: 1e-06.
Number of Cauchy elements: 100.
Begin windowed time average at iteration 0.

-------------------- Output Information ( Zone 0 ) ----------------------
Writing solution files every 1000 iterations.
Writing the convergence history file every 1 inner iterations.
Writing the screen convergence history every 1 inner iterations.
The tabular file format is CSV (.csv).
Convergence history file name: history_smallbox_turb.
Forces breakdown file name: forces_breakdown.dat.
Surface file name: surface_verification_mixtureviscosity_smallbox_turb.
Volume file name: flow_verification_mixtureviscosity_smallbox_turb.
Restart file name: restart_verification_mixtureviscosity_smallbox_turb.dat.

------------- Config File Boundary Information ( Zone 0 ) ---------------
+-----------------------------------------------------------------------+
|                        Marker Type|                        Marker Name|
+-----------------------------------------------------------------------+
|                     Symmetry plane|                               wall|
+-----------------------------------------------------------------------+
|                     Inlet boundary|                      inlet_methane|
|                                   |                          inlet_air|
+-----------------------------------------------------------------------+
|                    Outlet boundary|                             outlet|
+-----------------------------------------------------------------------+

-------------------- Output Preprocessing ( Zone 0 ) --------------------
Screen output fields: INNER_ITER, RMS_PRESSURE, RMS_VELOCITY-X, RMS_VELOCITY-Y, RMS_PASSIVE_SCALAR
History output group(s): RMS_RES, AERO_COEFF, FLOW_COEFF
Convergence field(s): RMS_TEMPERATURE, RMS_PRESSURE, RMS_VELOCITY-X, RMS_VELOCITY-Y, RMS_TKE, RMS_DISSIPATION
Warning: No (valid) fields chosen for time convergence monitoring. Time convergence monitoring inactive.
  Info: Ignoring the following volume output fields/groups:
  SOURCE, LOOKUP
Volume output fields: DENSITY, SOLUTION, PRIMITIVE, RESIDUAL, COORDINATES

------------------- Geometry Preprocessing ( Zone 0 ) -------------------
Two dimensional problem.
380 grid points before partitioning.
342 volume elements before partitioning.
4 surface markers.
38 boundary elements in index 0 (Marker = wall).
18 boundary elements in index 1 (Marker = outlet).
9 boundary elements in index 2 (Marker = inlet_air).
9 boundary elements in index 3 (Marker = inlet_methane).
Executing the partitioning functions.
Building the graph adjacency structure.
Calling ParMETIS... graph partitioning complete (480 edge cuts).
Distributing ParMETIS coloring.
Rebalancing vertices.
Rebalancing volume element connectivity.
Rebalancing markers and surface elements.
1802 vertices including ghost points. 
914 interior elements including halo cells. 
914 quadrilaterals.
Establishing MPI communication patterns.
Setting point connectivity.
Renumbering points (Reverse Cuthill McKee Ordering).
Recomputing point connectivity.
Setting element connectivity.
Checking the numerical grid orientation.
There has been a re-orientation of 914 QUADRILATERAL volume elements.
There has been a re-orientation of 121 LINE surface elements.
Identifying edges and vertices.
Setting the control volume structure.
Area of the computational grid: 0.267251.
Searching for the closest normal neighbors to the surfaces.
Storing a mapping from global to local point index.
Compute the surface curvature.
Max K: 37.7901. Mean K: 3.82684. Standard deviation K: 11.4005.
Checking for periodicity.
Computing mesh quality statistics for the dual control volumes.
+--------------------------------------------------------------+
|           Mesh Quality Metric|        Minimum|        Maximum|
+--------------------------------------------------------------+
|    Orthogonality Angle (deg.)|             90|             90|
|     CV Face Area Aspect Ratio|        4.73684|        18.9474|
|           CV Sub-Volume Ratio|              1|              1|
+--------------------------------------------------------------+
Finding max control volume width.
Communicating number of neighbors.
Wetted area = 0 m.
Area projection in the x-plane = 0 m, y-plane = 0 m.
Max. coordinate in the x-direction = -1e+10 m, y-direction = -1e+10 m.
Min. coordinate in the x-direction = 1e+10 m, y-direction = 1e+10 m.
Checking if Euler & Symmetry markers are straight/plane:
Boundary marker wall is a single straight.
Computing wall distances.

-------------------- Solver Preprocessing ( Zone 0 ) --------------------
Incompressible flow: rho_ref, vel_ref, temp_ref, p_ref
are set to 1.0 in order to perform a dimensional calculation.
Force coefficients computed using initial values.
The reference area for force coeffs. is 1 m^2.
The reference length for force coeffs. is 1 m.
The pressure is decomposed into thermodynamic and dynamic components.
The initial value of the dynamic pressure is 0.
Mach number: 0, computed using fluid speed of sound.
For external flows, the initial state is imposed at the far-field.
Angle of attack (deg): 0, computed using the initial velocity.
Side slip angle (deg): 0, computed using the initial velocity.
Reynolds number per meter: 66110.8, computed using initial values.
Reynolds number is a byproduct of inputs only (not used internally).
SI units only. The grid should be dimensional (meters).
Energy equation is active and coupled for variable density.

-- Models:
+------------------------------------------------------------------------------+
|          Viscosity Model|        Conductivity Model|              Fluid Model|
+------------------------------------------------------------------------------+
|               SUTHERLAND|          CONSTANT_PRANDTL|+------------------------------------------------------------------------------+
-- Fluid properties:
+------------------------------------------------------------------------------+
|                  Name|    Dim. value|    Ref. value|      Unit|Non-dim. value|
+------------------------------------------------------------------------------+
|        Ref. Viscosity|     1.716e-05|             1|   N.s/m^2|     1.716e-05|
|      Sutherland Temp.|        273.15|             1|         K|        273.15|
|     Sutherland Const.|         110.4|             1|         K|         110.4|
+------------------------------------------------------------------------------+
|        Prandtl (Lam.)|             -|             -|         -|          0.72|
|       Prandtl (Turb.)|             -|             -|         -|           0.9|
+------------------------------------------------------------------------------+
-- Initial and free-stream conditions:
+------------------------------------------------------------------------------+
|                  Name|    Dim. value|    Ref. value|      Unit|Non-dim. value|
+------------------------------------------------------------------------------+
|      Dynamic Pressure|             0|             1|        Pa|             0|
|        Total Pressure|        0.6026|             1|        Pa|        0.6026|
|               Density|        1.2052|             1|    kg/m^3|        1.2052|
|           Temperature|        293.15|             1|         K|        293.15|
|            Velocity-X|             1|             1|       m/s|             1|
|            Velocity-Y|             0|             1|       m/s|             0|
|    Velocity Magnitude|             1|             1|       m/s|             1|
+------------------------------------------------------------------------------+
|             Viscosity|     1.823e-05|             1|   N.s/m^2|     1.823e-05|
|          Conductivity|             -|             1|   W/m^2.K|             -|
|     Turb. Kin. Energy|       0.00375|             1|   m^2/s^2|       0.00375|
|     Spec. Dissipation|       24.7916|             1|       1/s|       24.7916|
+------------------------------------------------------------------------------+
|           Mach Number|             -|             -|         -|             0|
|       Reynolds Number|             -|             -|         -|       66110.8|
+------------------------------------------------------------------------------+
Initialize Jacobian structure (Navier-Stokes). MG level: 0.
Initialize Jacobian structure (passive scalar model).
Initialize Jacobian structure (SST model).

------------------- Numerics Preprocessing ( Zone 0 ) -------------------

----------------- Integration Preprocessing ( Zone 0 ) ------------------

------------------- Iteration Preprocessing ( Zone 0 ) ------------------
Euler/Navier-Stokes/RANS fluid iteration.

------------------------------ Begin Solver -----------------------------

Simulation Run using the Single-zone Driver
Initializing passive scalar (initial condition).
initialization = 1 1
CSysSolve::FGMRES(): system solved by initial guess.
CSysSolve::FGMRES(): system solved by initial guess.
+----------------------------------------------------------------+
|  Inner_Iter|      rms[P]|      rms[U]|      rms[V]|      rms[c]|
+----------------------------------------------------------------+
|           0|  -18.468488|  -18.188241|  -19.330452|  -18.431507|
|           1|   -3.446180|   -3.446180|  -18.568792|   -3.619849|
|           2|   -3.521264|   -3.390350|   -3.633933|   -3.538712|
|           3|   -3.558083|   -3.337099|   -3.561417|   -3.504536|
|           4|   -3.596472|   -3.307458|   -3.560755|   -3.485552|
|           5|   -3.635937|   -3.288749|   -3.568167|   -3.471569|
|           6|   -3.670752|   -3.275723|   -3.575938|   -3.459383|
|           7|   -3.697972|   -3.266054|   -3.586307|   -3.448102|
|           8|   -3.717084|   -3.258565|   -3.601776|   -3.437542|
|           9|   -3.729120|   -3.252585|   -3.623081|   -3.427752|
|          10|   -3.735807|   -3.247717|   -3.649733|   -3.418765|
|          11|   -3.738891|   -3.243687|   -3.680823|   -3.410584|
|          12|   -3.739781|   -3.240307|   -3.715463|   -3.403189|
|          13|   -3.739475|   -3.237438|   -3.752900|   -3.396548|
|          14|   -3.738619|   -3.234976|   -3.792481|   -3.390611|
|          15|   -3.737606|   -3.232842|   -3.833554|   -3.385316|
|          16|   -3.736662|   -3.230982|   -3.875313|   -3.380611|
|          17|   -3.735909|   -3.229352|   -3.916643|   -3.376445|
|          18|   -3.735402|   -3.227918|   -3.955962|   -3.372771|
|          19|   -3.735162|   -3.226656|   -3.991152|   -3.369543|
|          20|   -3.735185|   -3.225547|   -4.019710|   -3.366719|
|          21|   -3.735456|   -3.224575|   -4.039247|   -3.364260|
|          22|   -3.735956|   -3.223728|   -4.048243|   -3.362130|
|          23|   -3.736661|   -3.222996|   -4.046668|   -3.360297|
|          24|   -3.737549|   -3.222370|   -4.035991|   -3.358732|
|          25|   -3.738595|   -3.221842|   -4.018567|   -3.357407|
|          26|   -3.739778|   -3.221405|   -3.996868|   -3.356297|
|          27|   -3.741075|   -3.221054|   -3.972973|   -3.355379|
|          28|   -3.742467|   -3.220784|   -3.948403|   -3.354633|
|          29|   -3.743936|   -3.220588|   -3.924157|   -3.354041|
|          30|   -3.745465|   -3.220464|   -3.900836|   -3.353584|
|          31|   -3.747039|   -3.220408|   -3.878770|   -3.353249|
|          32|   -3.748645|   -3.220413|   -3.858123|   -3.353022|
|          33|   -3.750270|   -3.220475|   -3.838937|   -3.352890|
|          34|   -3.751903|   -3.220590|   -3.821192|   -3.352843|
|          35|   -3.753533|   -3.220757|   -3.804830|   -3.352871|
|          36|   -3.755152|   -3.220974|   -3.789773|   -3.352965|
|          37|   -3.756753|   -3.221234|   -3.775946|   -3.353117|
|          38|   -3.758328|   -3.221535|   -3.763262|   -3.353321|
|          39|   -3.759870|   -3.221875|   -3.751639|   -3.353569|
|          40|   -3.761375|   -3.222250|   -3.741000|   -3.353857|
|          41|   -3.762838|   -3.222660|   -3.731270|   -3.354178|
|          42|   -3.764255|   -3.223102|   -3.722384|   -3.354529|
|          43|   -3.765622|   -3.223574|   -3.714277|   -3.354906|
|          44|   -3.766938|   -3.224076|   -3.706893|   -3.355304|
|          45|   -3.768201|   -3.224602|   -3.700181|   -3.355721|
|          46|   -3.769407|   -3.225153|   -3.694092|   -3.356154|
|          47|   -3.770557|   -3.225726|   -3.688583|   -3.356599|
|          48|   -3.771649|   -3.226320|   -3.683613|   -3.357055|
|          49|   -3.772683|   -3.226934|   -3.679147|   -3.357520|
|          50|   -3.773659|   -3.227565|   -3.675151|   -3.357991|
|          51|   -3.774577|   -3.228214|   -3.671593|   -3.358467|
|          52|   -3.775437|   -3.228878|   -3.668446|   -3.358946|
|          53|   -3.776240|   -3.229556|   -3.665684|   -3.359428|
|          54|   -3.776987|   -3.230247|   -3.663282|   -3.359910|
|          55|   -3.777679|   -3.230950|   -3.661219|   -3.360392|
|          56|   -3.778323|   -3.231670|   -3.659470|   -3.360873|
|          57|   -3.778915|   -3.232398|   -3.658026|   -3.361352|
|          58|   -3.779458|   -3.233133|   -3.656868|   -3.361828|
|          59|   -3.779953|   -3.233874|   -3.655980|   -3.362301|
|          60|   -3.780402|   -3.234620|   -3.655347|   -3.362770|
|          61|   -3.780807|   -3.235370|   -3.654955|   -3.363235|
|          62|   -3.781168|   -3.236124|   -3.654791|   -3.363694|
|          63|   -3.781489|   -3.236881|   -3.654844|   -3.364148|
|          64|   -3.781770|   -3.237641|   -3.655101|   -3.364596|
|          65|   -3.782014|   -3.238402|   -3.655552|   -3.365038|
|          66|   -3.782222|   -3.239165|   -3.656188|   -3.365473|
|          67|   -3.782397|   -3.239928|   -3.657000|   -3.365902|
|          68|   -3.782539|   -3.240692|   -3.657979|   -3.366324|
|          69|   -3.782650|   -3.241455|   -3.659116|   -3.366739|
|          70|   -3.782733|   -3.242217|   -3.660405|   -3.367147|
|          71|   -3.782788|   -3.242978|   -3.661838|   -3.367548|
|          72|   -3.782818|   -3.243738|   -3.663407|   -3.367941|
|          73|   -3.782823|   -3.244495|   -3.665107|   -3.368327|
|          74|   -3.782806|   -3.245250|   -3.666932|   -3.368706|
|          75|   -3.782768|   -3.246003|   -3.668874|   -3.369077|
|          76|   -3.782710|   -3.246753|   -3.670930|   -3.369442|
|          77|   -3.782633|   -3.247499|   -3.673093|   -3.369799|
|          78|   -3.782540|   -3.248243|   -3.675359|   -3.370148|
|          79|   -3.782430|   -3.248982|   -3.677722|   -3.370491|
|          80|   -3.782306|   -3.249718|   -3.680179|   -3.370827|
|          81|   -3.782168|   -3.250450|   -3.682725|   -3.371156|
|          82|   -3.782018|   -3.251177|   -3.685355|   -3.371478|
|          83|   -3.781856|   -3.251900|   -3.688066|   -3.371794|
|          84|   -3.781684|   -3.252619|   -3.690855|   -3.372102|
|          85|   -3.781503|   -3.253333|   -3.693718|   -3.372405|
|          86|   -3.781313|   -3.254042|   -3.696651|   -3.372700|
|          87|   -3.781116|   -3.254746|   -3.699652|   -3.372989|
|          88|   -3.780912|   -3.255445|   -3.702716|   -3.373272|
|          89|   -3.780702|   -3.256139|   -3.705841|   -3.373549|
|          90|   -3.780487|   -3.256828|   -3.709025|   -3.373820|
|          91|   -3.780267|   -3.257512|   -3.712263|   -3.374085|
|          92|   -3.780043|   -3.258190|   -3.715554|   -3.374344|
|          93|   -3.779816|   -3.258864|   -3.718895|   -3.374598|
|          94|   -3.779587|   -3.259531|   -3.722283|   -3.374846|
|          95|   -3.779355|   -3.260194|   -3.725715|   -3.375088|
|          96|   -3.779121|   -3.260851|   -3.729191|   -3.375325|
|          97|   -3.778886|   -3.261502|   -3.732707|   -3.375558|
|          98|   -3.778650|   -3.262148|   -3.736261|   -3.375785|
|          99|   -3.778414|   -3.262789|   -3.739851|   -3.376007|
|         100|   -3.778178|   -3.263424|   -3.743475|   -3.376224|
|         101|   -3.777942|   -3.264054|   -3.747131|   -3.376437|
|         102|   -3.777707|   -3.264678|   -3.750817|   -3.376645|
|         103|   -3.777473|   -3.265297|   -3.754532|   -3.376848|
|         104|   -3.777240|   -3.265910|   -3.758273|   -3.377048|
|         105|   -3.777009|   -3.266518|   -3.762039|   -3.377243|
|         106|   -3.776779|   -3.267121|   -3.765829|   -3.377434|
|         107|   -3.776551|   -3.267718|   -3.769639|   -3.377621|
|         108|   -3.776326|   -3.268310|   -3.773470|   -3.377804|
|         109|   -3.776102|   -3.268896|   -3.777320|   -3.377983|
|         110|   -3.775882|   -3.269477|   -3.781187|   -3.378158|
|         111|   -3.775664|   -3.270053|   -3.785069|   -3.378330|
|         112|   -3.775448|   -3.270624|   -3.788965|   -3.378499|
|         113|   -3.775236|   -3.271190|   -3.792875|   -3.378664|
|         114|   -3.775027|   -3.271750|   -3.796796|   -3.378825|
|         115|   -3.774821|   -3.272305|   -3.800727|   -3.378984|
|         116|   -3.774618|   -3.272855|   -3.804668|   -3.379139|
|         117|   -3.774419|   -3.273401|   -3.808617|   -3.379291|
|         118|   -3.774223|   -3.273941|   -3.812572|   -3.379441|
|         119|   -3.774031|   -3.274476|   -3.816533|   -3.379587|
|         120|   -3.773842|   -3.275006|   -3.820498|   -3.379731|
|         121|   -3.773656|   -3.275532|   -3.824467|   -3.379871|
|         122|   -3.773474|   -3.276052|   -3.828438|   -3.380010|
|         123|   -3.773296|   -3.276568|   -3.832410|   -3.380145|
|         124|   -3.773121|   -3.277080|   -3.836383|   -3.380278|
|         125|   -3.772950|   -3.277586|   -3.840355|   -3.380409|
|         126|   -3.772782|   -3.278088|   -3.844325|   -3.380538|
|         127|   -3.772618|   -3.278585|   -3.848293|   -3.380664|
|         128|   -3.772458|   -3.279078|   -3.852257|   -3.380787|
|         129|   -3.772301|   -3.279566|   -3.856217|   -3.380909|
|         130|   -3.772148|   -3.280050|   -3.860172|   -3.381029|
|         131|   -3.771999|   -3.280530|   -3.864121|   -3.381146|
|         132|   -3.771853|   -3.281005|   -3.868063|   -3.381262|
|         133|   -3.771710|   -3.281476|   -3.871997|   -3.381375|
|         134|   -3.771571|   -3.281942|   -3.875922|   -3.381487|
|         135|   -3.771435|   -3.282404|   -3.879839|   -3.381597|
|         136|   -3.771303|   -3.282863|   -3.883745|   -3.381706|
|         137|   -3.771174|   -3.283317|   -3.887640|   -3.381812|
|         138|   -3.771048|   -3.283766|   -3.891524|   -3.381917|
|         139|   -3.770925|   -3.284212|   -3.895396|   -3.382020|
|         140|   -3.770806|   -3.284654|   -3.899255|   -3.382122|
|         141|   -3.770690|   -3.285092|   -3.903100|   -3.382222|
|         142|   -3.770577|   -3.285526|   -3.906931|   -3.382321|
|         143|   -3.770467|   -3.285956|   -3.910747|   -3.382418|
|         144|   -3.770360|   -3.286383|   -3.914548|   -3.382514|
|         145|   -3.770256|   -3.286805|   -3.918333|   -3.382609|
|         146|   -3.770155|   -3.287224|   -3.922101|   -3.382702|
|         147|   -3.770057|   -3.287639|   -3.925851|   -3.382794|
|         148|   -3.769962|   -3.288051|   -3.929584|   -3.382885|
|         149|   -3.769869|   -3.288459|   -3.933299|   -3.382975|
|         150|   -3.769779|   -3.288863|   -3.936994|   -3.383064|
|         151|   -3.769691|   -3.289264|   -3.940671|   -3.383151|
|         152|   -3.769606|   -3.289661|   -3.944327|   -3.383237|
|         153|   -3.769524|   -3.290055|   -3.947963|   -3.383323|
|         154|   -3.769444|   -3.290445|   -3.951578|   -3.383407|
|         155|   -3.769366|   -3.290832|   -3.955171|   -3.383490|
|         156|   -3.769291|   -3.291215|   -3.958743|   -3.383573|
|         157|   -3.769218|   -3.291596|   -3.962292|   -3.383654|
|         158|   -3.769147|   -3.291972|   -3.965819|   -3.383735|
|         159|   -3.769078|   -3.292346|   -3.969323|   -3.383815|
|         160|   -3.769011|   -3.292716|   -3.972803|   -3.383894|
|         161|   -3.768946|   -3.293084|   -3.976259|   -3.383972|
|         162|   -3.768883|   -3.293448|   -3.979691|   -3.384049|
|         163|   -3.768822|   -3.293808|   -3.983099|   -3.384126|
|         164|   -3.768763|   -3.294166|   -3.986481|   -3.384202|
|         165|   -3.768705|   -3.294521|   -3.989838|   -3.384277|
|         166|   -3.768650|   -3.294872|   -3.993169|   -3.384351|
|         167|   -3.768596|   -3.295221|   -3.996475|   -3.384425|
|         168|   -3.768543|   -3.295567|   -3.999754|   -3.384499|
|         169|   -3.768492|   -3.295909|   -4.003007|   -3.384571|
|         170|   -3.768443|   -3.296249|   -4.006233|   -3.384643|
|         171|   -3.768395|   -3.296586|   -4.009431|   -3.384715|
|         172|   -3.768349|   -3.296920|   -4.012603|   -3.384786|
|         173|   -3.768303|   -3.297251|   -4.015747|   -3.384856|
|         174|   -3.768260|   -3.297579|   -4.018863|   -3.384926|
|         175|   -3.768217|   -3.297904|   -4.021951|   -3.384995|
|         176|   -3.768175|   -3.298227|   -4.025011|   -3.385064|
|         177|   -3.768135|   -3.298547|   -4.028042|   -3.385133|
|         178|   -3.768096|   -3.298864|   -4.031045|   -3.385201|
|         179|   -3.768058|   -3.299178|   -4.034019|   -3.385268|
|         180|   -3.768021|   -3.299490|   -4.036964|   -3.385336|
|         181|   -3.767984|   -3.299799|   -4.039881|   -3.385402|
|         182|   -3.767949|   -3.300105|   -4.042768|   -3.385469|
|         183|   -3.767915|   -3.300409|   -4.045626|   -3.385535|
|         184|   -3.767881|   -3.300711|   -4.048454|   -3.385601|
|         185|   -3.767848|   -3.301009|   -4.051253|   -3.385666|
|         186|   -3.767816|   -3.301305|   -4.054022|   -3.385731|
|         187|   -3.767785|   -3.301599|   -4.056762|   -3.385796|
|         188|   -3.767754|   -3.301890|   -4.059472|   -3.385860|
|         189|   -3.767724|   -3.302179|   -4.062152|   -3.385924|
|         190|   -3.767695|   -3.302465|   -4.064803|   -3.385988|
|         191|   -3.767666|   -3.302749|   -4.067423|   -3.386051|
|         192|   -3.767638|   -3.303030|   -4.070014|   -3.386113|
|         193|   -3.767610|   -3.303309|   -4.072575|   -3.386176|
|         194|   -3.767582|   -3.303586|   -4.075106|   -3.386238|
|         195|   -3.767556|   -3.303860|   -4.077607|   -3.386300|
|         196|   -3.767529|   -3.304132|   -4.080078|   -3.386362|
|         197|   -3.767503|   -3.304402|   -4.082520|   -3.386423|
|         198|   -3.767477|   -3.304670|   -4.084931|   -3.386485|
|         199|   -3.767452|   -3.304935|   -4.087313|   -3.386546|
|         200|   -3.767427|   -3.305198|   -4.089665|   -3.386607|
|         201|   -3.767402|   -3.305458|   -4.091988|   -3.386668|
|         202|   -3.767377|   -3.305717|   -4.094281|   -3.386728|
|         203|   -3.767353|   -3.305973|   -4.096545|   -3.386789|
|         204|   -3.767329|   -3.306228|   -4.098779|   -3.386849|
|         205|   -3.767305|   -3.306480|   -4.100984|   -3.386909|
|         206|   -3.767281|   -3.306730|   -4.103160|   -3.386969|
|         207|   -3.767257|   -3.306977|   -4.105307|   -3.387029|
|         208|   -3.767234|   -3.307223|   -4.107425|   -3.387089|
|         209|   -3.767210|   -3.307467|   -4.109514|   -3.387148|
|         210|   -3.767187|   -3.307708|   -4.111574|   -3.387208|
|         211|   -3.767164|   -3.307948|   -4.113606|   -3.387267|
|         212|   -3.767140|   -3.308185|   -4.115610|   -3.387327|
|         213|   -3.767117|   -3.308421|   -4.117585|   -3.387386|
|         214|   -3.767094|   -3.308654|   -4.119533|   -3.387445|
|         215|   -3.767071|   -3.308886|   -4.121452|   -3.387504|
|         216|   -3.767048|   -3.309115|   -4.123344|   -3.387564|
|         217|   -3.767025|   -3.309343|   -4.125208|   -3.387623|
|         218|   -3.767002|   -3.309568|   -4.127045|   -3.387682|
|         219|   -3.766978|   -3.309792|   -4.128855|   -3.387741|
|         220|   -3.766955|   -3.310014|   -4.130638|   -3.387800|
|         221|   -3.766932|   -3.310233|   -4.132395|   -3.387859|
|         222|   -3.766908|   -3.310451|   -4.134124|   -3.387917|
|         223|   -3.766885|   -3.310668|   -4.135828|   -3.387976|
|         224|   -3.766861|   -3.310882|   -4.137505|   -3.388035|
|         225|   -3.766838|   -3.311094|   -4.139157|   -3.388094|
|         226|   -3.766814|   -3.311305|   -4.140783|   -3.388153|
|         227|   -3.766790|   -3.311514|   -4.142383|   -3.388212|
|         228|   -3.766765|   -3.311721|   -4.143959|   -3.388270|
|         229|   -3.766741|   -3.311926|   -4.145509|   -3.388329|
|         230|   -3.766716|   -3.312130|   -4.147035|   -3.388388|
|         231|   -3.766691|   -3.312331|   -4.148537|   -3.388446|
|         232|   -3.766666|   -3.312532|   -4.150014|   -3.388505|
|         233|   -3.766641|   -3.312730|   -4.151467|   -3.388564|
|         234|   -3.766615|   -3.312927|   -4.152897|   -3.388622|
|         235|   -3.766589|   -3.313122|   -4.154303|   -3.388681|
|         236|   -3.766563|   -3.313315|   -4.155686|   -3.388740|
|         237|   -3.766537|   -3.313506|   -4.157046|   -3.388798|
|         238|   -3.766510|   -3.313696|   -4.158384|   -3.388857|
|         239|   -3.766483|   -3.313885|   -4.159699|   -3.388916|
|         240|   -3.766456|   -3.314072|   -4.160992|   -3.388974|
|         241|   -3.766428|   -3.314257|   -4.162263|   -3.389033|
|         242|   -3.766400|   -3.314440|   -4.163513|   -3.389092|
|         243|   -3.766372|   -3.314622|   -4.164741|   -3.389150|
|         244|   -3.766343|   -3.314803|   -4.165948|   -3.389209|
|         245|   -3.766314|   -3.314981|   -4.167134|   -3.389268|
|         246|   -3.766285|   -3.315159|   -4.168300|   -3.389327|
|         247|   -3.766255|   -3.315334|   -4.169445|   -3.389385|
|         248|   -3.766225|   -3.315509|   -4.170571|   -3.389444|
|         249|   -3.766194|   -3.315681|   -4.171677|   -3.389503|
|         250|   -3.766163|   -3.315853|   -4.172763|   -3.389562|
|         251|   -3.766132|   -3.316022|   -4.173830|   -3.389620|
|         252|   -3.766101|   -3.316191|   -4.174878|   -3.389679|
|         253|   -3.766069|   -3.316358|   -4.175908|   -3.389738|
|         254|   -3.766036|   -3.316523|   -4.176919|   -3.389797|
|         255|   -3.766003|   -3.316687|   -4.177912|   -3.389856|
|         256|   -3.765970|   -3.316849|   -4.178887|   -3.389914|
|         257|   -3.765937|   -3.317011|   -4.179845|   -3.389973|
|         258|   -3.765903|   -3.317170|   -4.180785|   -3.390032|
|         259|   -3.765868|   -3.317329|   -4.181709|   -3.390091|
|         260|   -3.765833|   -3.317486|   -4.182615|   -3.390150|
|         261|   -3.765798|   -3.317641|   -4.183505|   -3.390209|
|         262|   -3.765762|   -3.317796|   -4.184378|   -3.390268|
|         263|   -3.765726|   -3.317949|   -4.185236|   -3.390326|
|         264|   -3.765690|   -3.318100|   -4.186078|   -3.390385|
|         265|   -3.765653|   -3.318251|   -4.186904|   -3.390444|
|         266|   -3.765615|   -3.318400|   -4.187715|   -3.390503|
|         267|   -3.765578|   -3.318547|   -4.188511|   -3.390562|
|         268|   -3.765539|   -3.318694|   -4.189292|   -3.390621|
|         269|   -3.765501|   -3.318839|   -4.190058|   -3.390680|
|         270|   -3.765461|   -3.318983|   -4.190811|   -3.390739|
|         271|   -3.765422|   -3.319125|   -4.191549|   -3.390798|
|         272|   -3.765382|   -3.319267|   -4.192273|   -3.390857|
|         273|   -3.765341|   -3.319407|   -4.192984|   -3.390916|
|         274|   -3.765300|   -3.319545|   -4.193682|   -3.390975|
|         275|   -3.765259|   -3.319683|   -4.194366|   -3.391034|
|         276|   -3.765216|   -3.319820|   -4.195044|   -3.391093|
|         277|   -3.765171|   -3.319955|   -4.195721|   -3.391152|
|         278|   -3.765126|   -3.320089|   -4.196394|   -3.391212|
|         279|   -3.765081|   -3.320222|   -4.197061|   -3.391271|
|         280|   -3.765035|   -3.320354|   -4.197722|   -3.391330|
|         281|   -3.764989|   -3.320485|   -4.198378|   -3.391389|
|         282|   -3.764942|   -3.320614|   -4.199028|   -3.391449|
|         283|   -3.764895|   -3.320743|   -4.199673|   -3.391508|
|         284|   -3.764848|   -3.320870|   -4.200312|   -3.391567|
|         285|   -3.764800|   -3.320996|   -4.200945|   -3.391627|
|         286|   -3.764752|   -3.321121|   -4.201573|   -3.391686|
|         287|   -3.764704|   -3.321244|   -4.202196|   -3.391746|
|         288|   -3.764655|   -3.321367|   -4.202812|   -3.391805|
|         289|   -3.764606|   -3.321489|   -4.203423|   -3.391865|
|         290|   -3.764557|   -3.321609|   -4.204028|   -3.391924|
|         291|   -3.764507|   -3.321728|   -4.204627|   -3.391984|
|         292|   -3.764457|   -3.321847|   -4.205221|   -3.392043|
|         293|   -3.764406|   -3.321964|   -4.205809|   -3.392103|
|         294|   -3.764355|   -3.322080|   -4.206391|   -3.392163|
|         295|   -3.764304|   -3.322195|   -4.206968|   -3.392222|
|         296|   -3.764253|   -3.322309|   -4.207539|   -3.392282|
|         297|   -3.764201|   -3.322422|   -4.208104|   -3.392342|
|         298|   -3.764149|   -3.322534|   -4.208664|   -3.392401|
|         299|   -3.764096|   -3.322645|   -4.209218|   -3.392461|
|         300|   -3.764043|   -3.322755|   -4.209767|   -3.392521|
|         301|   -3.763990|   -3.322864|   -4.210310|   -3.392581|
|         302|   -3.763937|   -3.322972|   -4.210847|   -3.392640|
|         303|   -3.763883|   -3.323079|   -4.211379|   -3.392700|
|         304|   -3.763828|   -3.323185|   -4.211905|   -3.392760|
|         305|   -3.763774|   -3.323290|   -4.212426|   -3.392819|
|         306|   -3.763719|   -3.323394|   -4.212941|   -3.392879|
|         307|   -3.763664|   -3.323497|   -4.213451|   -3.392939|
|         308|   -3.763608|   -3.323599|   -4.213956|   -3.392999|
|         309|   -3.763552|   -3.323700|   -4.214455|   -3.393058|
|         310|   -3.763496|   -3.323800|   -4.214949|   -3.393118|
|         311|   -3.763440|   -3.323900|   -4.215438|   -3.393178|
|         312|   -3.763383|   -3.323998|   -4.215921|   -3.393237|
|         313|   -3.763326|   -3.324095|   -4.216399|   -3.393297|
|         314|   -3.763268|   -3.324192|   -4.216872|   -3.393357|
|         315|   -3.763210|   -3.324288|   -4.217340|   -3.393416|
|         316|   -3.763152|   -3.324382|   -4.217803|   -3.393476|
|         317|   -3.763094|   -3.324476|   -4.218261|   -3.393535|
|         318|   -3.763035|   -3.324569|   -4.218714|   -3.393595|
|         319|   -3.762976|   -3.324661|   -4.219161|   -3.393654|
|         320|   -3.762917|   -3.324752|   -4.219604|   -3.393714|
|         321|   -3.762857|   -3.324843|   -4.220043|   -3.393773|
|         322|   -3.762797|   -3.324932|   -4.220476|   -3.393833|
|         323|   -3.762737|   -3.325021|   -4.220904|   -3.393892|
|         324|   -3.762676|   -3.325109|   -4.221328|   -3.393952|
|         325|   -3.762615|   -3.325196|   -4.221747|   -3.394011|
|         326|   -3.762554|   -3.325282|   -4.222162|   -3.394070|
|         327|   -3.762492|   -3.325367|   -4.222572|   -3.394130|
|         328|   -3.762431|   -3.325452|   -4.222977|   -3.394189|
|         329|   -3.762369|   -3.325535|   -4.223378|   -3.394248|
|         330|   -3.762306|   -3.325618|   -4.223774|   -3.394308|
|         331|   -3.762244|   -3.325700|   -4.224166|   -3.394367|
|         332|   -3.762181|   -3.325781|   -4.224554|   -3.394426|
|         333|   -3.762117|   -3.325862|   -4.224938|   -3.394485|
|         334|   -3.762054|   -3.325942|   -4.225317|   -3.394544|
|         335|   -3.761990|   -3.326021|   -4.225692|   -3.394603|
|         336|   -3.761926|   -3.326099|   -4.226062|   -3.394662|
|         337|   -3.761862|   -3.326176|   -4.226429|   -3.394721|
|         338|   -3.761797|   -3.326253|   -4.226792|   -3.394780|
|         339|   -3.761732|   -3.326329|   -4.227150|   -3.394839|
|         340|   -3.761667|   -3.326404|   -4.227505|   -3.394898|
|         341|   -3.761601|   -3.326478|   -4.227856|   -3.394957|
|         342|   -3.761536|   -3.326552|   -4.228203|   -3.395015|
|         343|   -3.761470|   -3.326625|   -4.228546|   -3.395074|
|         344|   -3.761403|   -3.326697|   -4.228885|   -3.395133|
|         345|   -3.761337|   -3.326768|   -4.229221|   -3.395191|
|         346|   -3.761270|   -3.326839|   -4.229553|   -3.395250|
|         347|   -3.761203|   -3.326909|   -4.229881|   -3.395308|
|         348|   -3.761136|   -3.326978|   -4.230206|   -3.395367|
|         349|   -3.761068|   -3.327047|   -4.230527|   -3.395425|
|         350|   -3.761000|   -3.327115|   -4.230845|   -3.395484|
|         351|   -3.760932|   -3.327182|   -4.231159|   -3.395542|
|         352|   -3.760864|   -3.327249|   -4.231470|   -3.395600|
|         353|   -3.760795|   -3.327315|   -4.231778|   -3.395658|
|         354|   -3.760726|   -3.327380|   -4.232082|   -3.395717|
|         355|   -3.760657|   -3.327444|   -4.232383|   -3.395775|
|         356|   -3.760588|   -3.327508|   -4.232681|   -3.395833|
|         357|   -3.760518|   -3.327571|   -4.232976|   -3.395891|
|         358|   -3.760449|   -3.327634|   -4.233267|   -3.395949|
|         359|   -3.760379|   -3.327696|   -4.233556|   -3.396007|
|         360|   -3.760308|   -3.327757|   -4.233841|   -3.396065|
|         361|   -3.760238|   -3.327817|   -4.234124|   -3.396122|
|         362|   -3.760167|   -3.327877|   -4.234404|   -3.396180|
|         363|   -3.760096|   -3.327937|   -4.234680|   -3.396238|
|         364|   -3.760025|   -3.327995|   -4.234954|   -3.396296|
|         365|   -3.759953|   -3.328053|   -4.235225|   -3.396353|
|         366|   -3.759882|   -3.328111|   -4.235494|   -3.396411|
|         367|   -3.759810|   -3.328168|   -4.235759|   -3.396468|
|         368|   -3.759738|   -3.328224|   -4.236022|   -3.396525|
|         369|   -3.759666|   -3.328279|   -4.236283|   -3.396583|
|         370|   -3.759593|   -3.328334|   -4.236541|   -3.396640|
|         371|   -3.759520|   -3.328389|   -4.236796|   -3.396697|
|         372|   -3.759447|   -3.328443|   -4.237048|   -3.396755|
|         373|   -3.759374|   -3.328496|   -4.237299|   -3.396812|
|         374|   -3.759301|   -3.328549|   -4.237546|   -3.396869|
|         375|   -3.759227|   -3.328601|   -4.237792|   -3.396926|
|         376|   -3.759154|   -3.328652|   -4.238035|   -3.396983|
|         377|   -3.759080|   -3.328703|   -4.238276|   -3.397039|
|         378|   -3.759005|   -3.328753|   -4.238514|   -3.397096|
|         379|   -3.758931|   -3.328803|   -4.238751|   -3.397153|
|         380|   -3.758857|   -3.328853|   -4.238985|   -3.397210|
|         381|   -3.758782|   -3.328901|   -4.239217|   -3.397266|
|         382|   -3.758707|   -3.328949|   -4.239446|   -3.397323|
|         383|   -3.758632|   -3.328997|   -4.239674|   -3.397379|
|         384|   -3.758557|   -3.329044|   -4.239900|   -3.397436|
|         385|   -3.758481|   -3.329091|   -4.240124|   -3.397492|
|         386|   -3.758405|   -3.329137|   -4.240345|   -3.397548|
|         387|   -3.758330|   -3.329182|   -4.240565|   -3.397605|
|         388|   -3.758254|   -3.329227|   -4.240783|   -3.397661|
|         389|   -3.758177|   -3.329272|   -4.240999|   -3.397717|
|         390|   -3.758101|   -3.329315|   -4.241213|   -3.397773|
|         391|   -3.758024|   -3.329359|   -4.241426|   -3.397829|
|         392|   -3.757948|   -3.329402|   -4.241636|   -3.397885|
|         393|   -3.757871|   -3.329444|   -4.241845|   -3.397941|
|         394|   -3.757794|   -3.329486|   -4.242052|   -3.397996|
|         395|   -3.757716|   -3.329527|   -4.242258|   -3.398052|
|         396|   -3.757639|   -3.329568|   -4.242462|   -3.398108|
|         397|   -3.757562|   -3.329608|   -4.242664|   -3.398163|
|         398|   -3.757484|   -3.329648|   -4.242865|   -3.398219|
|         399|   -3.757406|   -3.329688|   -4.243064|   -3.398274|
|         400|   -3.757328|   -3.329727|   -4.243261|   -3.398330|
|         401|   -3.757250|   -3.329765|   -4.243458|   -3.398385|
|         402|   -3.757171|   -3.329803|   -4.243652|   -3.398440|
|         403|   -3.757093|   -3.329840|   -4.243846|   -3.398495|
|         404|   -3.757014|   -3.329877|   -4.244037|   -3.398550|
|         405|   -3.756935|   -3.329914|   -4.244228|   -3.398605|
|         406|   -3.756857|   -3.329950|   -4.244417|   -3.398660|
|         407|   -3.756777|   -3.329985|   -4.244605|   -3.398715|
|         408|   -3.756698|   -3.330021|   -4.244792|   -3.398770|
|         409|   -3.756619|   -3.330055|   -4.244977|   -3.398825|
|         410|   -3.756539|   -3.330090|   -4.245161|   -3.398880|
|         411|   -3.756460|   -3.330123|   -4.245344|   -3.398934|
|         412|   -3.756380|   -3.330157|   -4.245525|   -3.398989|
|         413|   -3.756300|   -3.330190|   -4.245706|   -3.399043|
|         414|   -3.756220|   -3.330222|   -4.245885|   -3.399098|
|         415|   -3.756140|   -3.330254|   -4.246064|   -3.399152|
|         416|   -3.756059|   -3.330286|   -4.246241|   -3.399206|
|         417|   -3.755979|   -3.330317|   -4.246417|   -3.399260|
|         418|   -3.755898|   -3.330347|   -4.246592|   -3.399314|
|         419|   -3.755818|   -3.330378|   -4.246766|   -3.399369|
|         420|   -3.755737|   -3.330408|   -4.246939|   -3.399422|
|         421|   -3.755656|   -3.330437|   -4.247111|   -3.399476|
|         422|   -3.755575|   -3.330466|   -4.247282|   -3.399530|
|         423|   -3.755494|   -3.330495|   -4.247453|   -3.399584|
|         424|   -3.755413|   -3.330523|   -4.247622|   -3.399638|
|         425|   -3.755331|   -3.330551|   -4.247791|   -3.399691|
|         426|   -3.755250|   -3.330578|   -4.247958|   -3.399745|
|         427|   -3.755168|   -3.330605|   -4.248125|   -3.399798|
|         428|   -3.755086|   -3.330632|   -4.248291|   -3.399852|
|         429|   -3.755004|   -3.330658|   -4.248456|   -3.399905|
|         430|   -3.754923|   -3.330684|   -4.248621|   -3.399958|
|         431|   -3.754840|   -3.330710|   -4.248784|   -3.400012|
|         432|   -3.754758|   -3.330735|   -4.248947|   -3.400065|
|         433|   -3.754676|   -3.330759|   -4.249109|   -3.400118|
|         434|   -3.754594|   -3.330784|   -4.249271|   -3.400171|
|         435|   -3.754511|   -3.330807|   -4.249432|   -3.400224|
|         436|   -3.754429|   -3.330831|   -4.249592|   -3.400277|
|         437|   -3.754346|   -3.330854|   -4.249751|   -3.400329|
|         438|   -3.754263|   -3.330877|   -4.249910|   -3.400382|
|         439|   -3.754180|   -3.330899|   -4.250068|   -3.400435|
|         440|   -3.754098|   -3.330921|   -4.250226|   -3.400487|
|         441|   -3.754015|   -3.330943|   -4.250383|   -3.400540|
|         442|   -3.753931|   -3.330964|   -4.250540|   -3.400592|
|         443|   -3.753848|   -3.330985|   -4.250696|   -3.400645|
|         444|   -3.753765|   -3.331006|   -4.250851|   -3.400697|
|         445|   -3.753682|   -3.331026|   -4.251006|   -3.400749|
|         446|   -3.753598|   -3.331046|   -4.251161|   -3.400801|
|         447|   -3.753515|   -3.331066|   -4.251315|   -3.400853|
|         448|   -3.753431|   -3.331085|   -4.251468|   -3.400905|
|         449|   -3.753347|   -3.331104|   -4.251621|   -3.400957|
|         450|   -3.753264|   -3.331122|   -4.251774|   -3.401009|
|         451|   -3.753180|   -3.331141|   -4.251926|   -3.401061|
|         452|   -3.753096|   -3.331158|   -4.252078|   -3.401112|
|         453|   -3.753012|   -3.331176|   -4.252230|   -3.401164|
|         454|   -3.752928|   -3.331193|   -4.252381|   -3.401216|
|         455|   -3.752844|   -3.331210|   -4.252531|   -3.401267|
|         456|   -3.752760|   -3.331226|   -4.252682|   -3.401318|
|         457|   -3.752675|   -3.331243|   -4.252832|   -3.401370|
|         458|   -3.752591|   -3.331259|   -4.252981|   -3.401421|
|         459|   -3.752507|   -3.331274|   -4.253131|   -3.401472|
|         460|   -3.752422|   -3.331289|   -4.253280|   -3.401523|
|         461|   -3.752338|   -3.331304|   -4.253429|   -3.401574|
|         462|   -3.752253|   -3.331319|   -4.253577|   -3.401625|
|         463|   -3.752169|   -3.331333|   -4.253725|   -3.401676|
|         464|   -3.752084|   -3.331347|   -4.253873|   -3.401727|
|         465|   -3.751999|   -3.331361|   -4.254021|   -3.401778|
|         466|   -3.751914|   -3.331374|   -4.254168|   -3.401829|
|         467|   -3.751830|   -3.331387|   -4.254316|   -3.401879|
|         468|   -3.751745|   -3.331400|   -4.254463|   -3.401930|
|         469|   -3.751660|   -3.331413|   -4.254610|   -3.401980|
|         470|   -3.751575|   -3.331425|   -4.254756|   -3.402031|
|         471|   -3.751490|   -3.331437|   -4.254903|   -3.402081|
|         472|   -3.751405|   -3.331448|   -4.255049|   -3.402131|
|         473|   -3.751320|   -3.331460|   -4.255195|   -3.402181|
|         474|   -3.751234|   -3.331471|   -4.255341|   -3.402231|
|         475|   -3.751149|   -3.331482|   -4.255487|   -3.402282|
|         476|   -3.751064|   -3.331492|   -4.255633|   -3.402331|
|         477|   -3.750979|   -3.331502|   -4.255778|   -3.402381|
|         478|   -3.750893|   -3.331512|   -4.255924|   -3.402431|
|         479|   -3.750808|   -3.331522|   -4.256069|   -3.402481|
|         480|   -3.750723|   -3.331531|   -4.256215|   -3.402531|
|         481|   -3.750637|   -3.331540|   -4.256360|   -3.402580|
|         482|   -3.750552|   -3.331549|   -4.256505|   -3.402630|
|         483|   -3.750466|   -3.331558|   -4.256650|   -3.402679|
|         484|   -3.750381|   -3.331566|   -4.256795|   -3.402729|
|         485|   -3.750295|   -3.331574|   -4.256940|   -3.402778|
|         486|   -3.750210|   -3.331582|   -4.257085|   -3.402827|
|         487|   -3.750124|   -3.331589|   -4.257230|   -3.402876|
|         488|   -3.750039|   -3.331596|   -4.257374|   -3.402925|
|         489|   -3.749953|   -3.331603|   -4.257519|   -3.402974|
|         490|   -3.749867|   -3.331610|   -4.257664|   -3.403023|
|         491|   -3.749782|   -3.331617|   -4.257808|   -3.403072|
|         492|   -3.749696|   -3.331623|   -4.257953|   -3.403121|
|         493|   -3.749610|   -3.331629|   -4.258098|   -3.403170|
|         494|   -3.749524|   -3.331634|   -4.258243|   -3.403218|
|         495|   -3.749439|   -3.331640|   -4.258387|   -3.403267|
|         496|   -3.749353|   -3.331645|   -4.258532|   -3.403315|
|         497|   -3.749267|   -3.331650|   -4.258677|   -3.403364|
|         498|   -3.749181|   -3.331655|   -4.258822|   -3.403412|
|         499|   -3.749095|   -3.331659|   -4.258966|   -3.403461|
|         500|   -3.749010|   -3.331664|   -4.259111|   -3.403509|
|         501|   -3.748924|   -3.331668|   -4.259256|   -3.403557|
|         502|   -3.748838|   -3.331671|   -4.259401|   -3.403605|
|         503|   -3.748752|   -3.331675|   -4.259546|   -3.403653|
|         504|   -3.748666|   -3.331678|   -4.259691|   -3.403701|
|         505|   -3.748580|   -3.331681|   -4.259836|   -3.403749|
|         506|   -3.748494|   -3.331684|   -4.259982|   -3.403796|
|         507|   -3.748408|   -3.331687|   -4.260127|   -3.403844|
|         508|   -3.748323|   -3.331689|   -4.260272|   -3.403892|
|         509|   -3.748237|   -3.331692|   -4.260418|   -3.403939|
|         510|   -3.748151|   -3.331694|   -4.260563|   -3.403987|
|         511|   -3.748065|   -3.331695|   -4.260709|   -3.404034|
|         512|   -3.747979|   -3.331697|   -4.260855|   -3.404082|
|         513|   -3.747893|   -3.331698|   -4.261001|   -3.404129|
|         514|   -3.747807|   -3.331699|   -4.261147|   -3.404176|
|         515|   -3.747721|   -3.331700|   -4.261293|   -3.404223|
|         516|   -3.747635|   -3.331701|   -4.261439|   -3.404270|
|         517|   -3.747549|   -3.331701|   -4.261585|   -3.404317|
|         518|   -3.747463|   -3.331701|   -4.261732|   -3.404364|
|         519|   -3.747378|   -3.331702|   -4.261878|   -3.404411|
|         520|   -3.747292|   -3.331701|   -4.262025|   -3.404458|
|         521|   -3.747206|   -3.331701|   -4.262172|   -3.404505|
|         522|   -3.747120|   -3.331700|   -4.262319|   -3.404551|
|         523|   -3.747034|   -3.331700|   -4.262466|   -3.404598|
|         524|   -3.746948|   -3.331699|   -4.262613|   -3.404644|
|         525|   -3.746862|   -3.331697|   -4.262761|   -3.404691|
|         526|   -3.746777|   -3.331696|   -4.262908|   -3.404737|
|         527|   -3.746691|   -3.331695|   -4.263056|   -3.404783|
|         528|   -3.746605|   -3.331693|   -4.263204|   -3.404830|
|         529|   -3.746519|   -3.331691|   -4.263352|   -3.404876|
|         530|   -3.746433|   -3.331689|   -4.263500|   -3.404922|
|         531|   -3.746348|   -3.331686|   -4.263648|   -3.404968|
|         532|   -3.746262|   -3.331684|   -4.263797|   -3.405014|
|         533|   -3.746176|   -3.331681|   -4.263946|   -3.405060|
|         534|   -3.746090|   -3.331678|   -4.264095|   -3.405105|
|         535|   -3.746005|   -3.331675|   -4.264244|   -3.405151|
|         536|   -3.745919|   -3.331672|   -4.264393|   -3.405197|
|         537|   -3.745833|   -3.331668|   -4.264542|   -3.405242|
|         538|   -3.745748|   -3.331665|   -4.264692|   -3.405288|
|         539|   -3.745662|   -3.331661|   -4.264842|   -3.405333|
|         540|   -3.745576|   -3.331657|   -4.264992|   -3.405379|
|         541|   -3.745491|   -3.331653|   -4.265142|   -3.405424|
|         542|   -3.745405|   -3.331648|   -4.265292|   -3.405469|
|         543|   -3.745320|   -3.331644|   -4.265443|   -3.405514|
|         544|   -3.745234|   -3.331639|   -4.265594|   -3.405559|
|         545|   -3.745149|   -3.331634|   -4.265745|   -3.405604|
|         546|   -3.745063|   -3.331629|   -4.265896|   -3.405649|
|         547|   -3.744978|   -3.331624|   -4.266047|   -3.405694|
|         548|   -3.744893|   -3.331619|   -4.266199|   -3.405739|
|         549|   -3.744807|   -3.331613|   -4.266351|   -3.405784|
|         550|   -3.744722|   -3.331607|   -4.266503|   -3.405829|
|         551|   -3.744636|   -3.331601|   -4.266655|   -3.405873|
|         552|   -3.744551|   -3.331595|   -4.266807|   -3.405918|
|         553|   -3.744466|   -3.331589|   -4.266960|   -3.405962|
|         554|   -3.744381|   -3.331583|   -4.267113|   -3.406007|
|         555|   -3.744296|   -3.331576|   -4.267266|   -3.406051|
|         556|   -3.744210|   -3.331570|   -4.267419|   -3.406095|
|         557|   -3.744125|   -3.331563|   -4.267573|   -3.406139|
|         558|   -3.744040|   -3.331556|   -4.267726|   -3.406184|
|         559|   -3.743955|   -3.331548|   -4.267880|   -3.406228|
|         560|   -3.743870|   -3.331541|   -4.268034|   -3.406272|
|         561|   -3.743785|   -3.331534|   -4.268189|   -3.406316|
|         562|   -3.743700|   -3.331526|   -4.268343|   -3.406359|
|         563|   -3.743615|   -3.331518|   -4.268498|   -3.406403|
|         564|   -3.743530|   -3.331510|   -4.268653|   -3.406447|
|         565|   -3.743446|   -3.331502|   -4.268808|   -3.406491|
|         566|   -3.743361|   -3.331494|   -4.268964|   -3.406534|
|         567|   -3.743276|   -3.331486|   -4.269120|   -3.406578|
|         568|   -3.743191|   -3.331477|   -4.269276|   -3.406621|
|         569|   -3.743107|   -3.331469|   -4.269432|   -3.406665|
|         570|   -3.743022|   -3.331460|   -4.269588|   -3.406708|
|         571|   -3.742937|   -3.331451|   -4.269745|   -3.406751|
|         572|   -3.742853|   -3.331442|   -4.269902|   -3.406794|
|         573|   -3.742768|   -3.331432|   -4.270059|   -3.406838|
|         574|   -3.742684|   -3.331423|   -4.270216|   -3.406881|
|         575|   -3.742599|   -3.331414|   -4.270374|   -3.406924|
|         576|   -3.742515|   -3.331404|   -4.270531|   -3.406967|
|         577|   -3.742431|   -3.331394|   -4.270689|   -3.407009|
|         578|   -3.742347|   -3.331384|   -4.270848|   -3.407052|
|         579|   -3.742262|   -3.331374|   -4.271006|   -3.407095|
|         580|   -3.742178|   -3.331364|   -4.271165|   -3.407138|
|         581|   -3.742094|   -3.331354|   -4.271324|   -3.407180|
|         582|   -3.742010|   -3.331343|   -4.271483|   -3.407223|
|         583|   -3.741926|   -3.331333|   -4.271642|   -3.407265|
|         584|   -3.741842|   -3.331322|   -4.271802|   -3.407308|
|         585|   -3.741758|   -3.331311|   -4.271962|   -3.407350|
|         586|   -3.741674|   -3.331300|   -4.272122|   -3.407392|
|         587|   -3.741590|   -3.331289|   -4.272283|   -3.407434|
|         588|   -3.741506|   -3.331278|   -4.272443|   -3.407477|
|         589|   -3.741422|   -3.331266|   -4.272604|   -3.407519|
|         590|   -3.741339|   -3.331255|   -4.272765|   -3.407561|
|         591|   -3.741255|   -3.331243|   -4.272926|   -3.407603|
|         592|   -3.741172|   -3.331232|   -4.273088|   -3.407645|
|         593|   -3.741088|   -3.331220|   -4.273250|   -3.407686|
|         594|   -3.741004|   -3.331208|   -4.273412|   -3.407728|
|         595|   -3.740921|   -3.331196|   -4.273574|   -3.407770|
|         596|   -3.740838|   -3.331184|   -4.273737|   -3.407811|
|         597|   -3.740754|   -3.331171|   -4.273899|   -3.407853|
|         598|   -3.740671|   -3.331159|   -4.274062|   -3.407894|
|         599|   -3.740588|   -3.331146|   -4.274225|   -3.407936|
|         600|   -3.740505|   -3.331134|   -4.274389|   -3.407977|
|         601|   -3.740421|   -3.331121|   -4.274553|   -3.408019|
|         602|   -3.740338|   -3.331108|   -4.274717|   -3.408060|
|         603|   -3.740255|   -3.331095|   -4.274881|   -3.408101|
|         604|   -3.740172|   -3.331082|   -4.275045|   -3.408142|
|         605|   -3.740090|   -3.331069|   -4.275210|   -3.408183|
|         606|   -3.740007|   -3.331055|   -4.275375|   -3.408224|
|         607|   -3.739924|   -3.331042|   -4.275540|   -3.408265|
|         608|   -3.739841|   -3.331028|   -4.275705|   -3.408306|
|         609|   -3.739759|   -3.331015|   -4.275871|   -3.408347|
|         610|   -3.739676|   -3.331001|   -4.276036|   -3.408388|
|         611|   -3.739593|   -3.330987|   -4.276203|   -3.408428|
|         612|   -3.739511|   -3.330973|   -4.276369|   -3.408469|
|         613|   -3.739428|   -3.330959|   -4.276535|   -3.408509|
|         614|   -3.739346|   -3.330945|   -4.276702|   -3.408550|
|         615|   -3.739264|   -3.330930|   -4.276869|   -3.408590|
|         616|   -3.739182|   -3.330916|   -4.277036|   -3.408631|
|         617|   -3.739099|   -3.330901|   -4.277204|   -3.408671|
|         618|   -3.739017|   -3.330887|   -4.277371|   -3.408711|
|         619|   -3.738935|   -3.330872|   -4.277539|   -3.408751|
|         620|   -3.738853|   -3.330857|   -4.277707|   -3.408791|
|         621|   -3.738771|   -3.330842|   -4.277876|   -3.408831|
|         622|   -3.738689|   -3.330827|   -4.278044|   -3.408871|
|         623|   -3.738608|   -3.330812|   -4.278213|   -3.408911|
|         624|   -3.738526|   -3.330797|   -4.278382|   -3.408951|
|         625|   -3.738444|   -3.330782|   -4.278552|   -3.408991|
|         626|   -3.738362|   -3.330766|   -4.278721|   -3.409031|
|         627|   -3.738281|   -3.330751|   -4.278891|   -3.409071|
|         628|   -3.738199|   -3.330735|   -4.279061|   -3.409110|
|         629|   -3.738118|   -3.330720|   -4.279231|   -3.409150|
|         630|   -3.738037|   -3.330704|   -4.279401|   -3.409189|
|         631|   -3.737955|   -3.330688|   -4.279572|   -3.409229|
|         632|   -3.737874|   -3.330672|   -4.279743|   -3.409268|
|         633|   -3.737793|   -3.330656|   -4.279914|   -3.409307|
|         634|   -3.737712|   -3.330640|   -4.280085|   -3.409347|
|         635|   -3.737631|   -3.330624|   -4.280257|   -3.409386|
|         636|   -3.737550|   -3.330607|   -4.280429|   -3.409425|
|         637|   -3.737469|   -3.330591|   -4.280601|   -3.409464|
|         638|   -3.737388|   -3.330575|   -4.280773|   -3.409503|
|         639|   -3.737307|   -3.330558|   -4.280945|   -3.409542|
|         640|   -3.737226|   -3.330541|   -4.281118|   -3.409581|
|         641|   -3.737146|   -3.330525|   -4.281291|   -3.409620|
|         642|   -3.737065|   -3.330508|   -4.281464|   -3.409659|
|         643|   -3.736985|   -3.330491|   -4.281637|   -3.409697|
|         644|   -3.736904|   -3.330474|   -4.281811|   -3.409736|
|         645|   -3.736824|   -3.330457|   -4.281984|   -3.409775|
|         646|   -3.736744|   -3.330440|   -4.282158|   -3.409813|
|         647|   -3.736663|   -3.330422|   -4.282332|   -3.409852|
|         648|   -3.736583|   -3.330405|   -4.282507|   -3.409890|
|         649|   -3.736503|   -3.330388|   -4.282681|   -3.409928|
|         650|   -3.736423|   -3.330370|   -4.282856|   -3.409967|
|         651|   -3.736343|   -3.330353|   -4.283031|   -3.410005|
|         652|   -3.736263|   -3.330335|   -4.283206|   -3.410043|
|         653|   -3.736184|   -3.330317|   -4.283382|   -3.410081|
|         654|   -3.736104|   -3.330300|   -4.283557|   -3.410119|
|         655|   -3.736024|   -3.330282|   -4.283733|   -3.410157|
|         656|   -3.735945|   -3.330264|   -4.283909|   -3.410195|
|         657|   -3.735865|   -3.330246|   -4.284086|   -3.410233|
|         658|   -3.735786|   -3.330228|   -4.284262|   -3.410271|
|         659|   -3.735706|   -3.330209|   -4.284439|   -3.410309|
|         660|   -3.735627|   -3.330191|   -4.284616|   -3.410347|
|         661|   -3.735548|   -3.330173|   -4.284793|   -3.410384|
|         662|   -3.735468|   -3.330154|   -4.284970|   -3.410422|
|         663|   -3.735389|   -3.330136|   -4.285148|   -3.410459|
|         664|   -3.735310|   -3.330117|   -4.285325|   -3.410497|
|         665|   -3.735231|   -3.330099|   -4.285503|   -3.410534|
|         666|   -3.735152|   -3.330080|   -4.285681|   -3.410572|
|         667|   -3.735074|   -3.330061|   -4.285860|   -3.410609|
|         668|   -3.734995|   -3.330043|   -4.286038|   -3.410646|
|         669|   -3.734916|   -3.330024|   -4.286217|   -3.410684|
|         670|   -3.734838|   -3.330005|   -4.286396|   -3.410721|
|         671|   -3.734759|   -3.329986|   -4.286575|   -3.410758|
|         672|   -3.734681|   -3.329967|   -4.286754|   -3.410795|
|         673|   -3.734602|   -3.329948|   -4.286934|   -3.410832|
|         674|   -3.734524|   -3.329928|   -4.287113|   -3.410869|
|         675|   -3.734446|   -3.329909|   -4.287293|   -3.410906|
|         676|   -3.734368|   -3.329890|   -4.287473|   -3.410942|
|         677|   -3.734290|   -3.329870|   -4.287654|   -3.410979|
|         678|   -3.734212|   -3.329851|   -4.287834|   -3.411016|
|         679|   -3.734134|   -3.329831|   -4.288015|   -3.411053|
|         680|   -3.734056|   -3.329812|   -4.288196|   -3.411089|
|         681|   -3.733978|   -3.329792|   -4.288377|   -3.411126|
|         682|   -3.733900|   -3.329772|   -4.288558|   -3.411162|
|         683|   -3.733823|   -3.329752|   -4.288739|   -3.411199|
|         684|   -3.733745|   -3.329733|   -4.288921|   -3.411235|
|         685|   -3.733668|   -3.329713|   -4.289103|   -3.411271|
|         686|   -3.733590|   -3.329693|   -4.289284|   -3.411308|
|         687|   -3.733513|   -3.329673|   -4.289467|   -3.411344|
|         688|   -3.733436|   -3.329653|   -4.289649|   -3.411380|
|         689|   -3.733359|   -3.329632|   -4.289831|   -3.411416|
|         690|   -3.733282|   -3.329612|   -4.290014|   -3.411452|
|         691|   -3.733205|   -3.329592|   -4.290197|   -3.411488|
|         692|   -3.733128|   -3.329572|   -4.290380|   -3.411524|
|         693|   -3.733051|   -3.329551|   -4.290563|   -3.411560|
|         694|   -3.732974|   -3.329531|   -4.290747|   -3.411596|
|         695|   -3.732897|   -3.329510|   -4.290930|   -3.411632|
|         696|   -3.732821|   -3.329490|   -4.291114|   -3.411667|
|         697|   -3.732744|   -3.329469|   -4.291298|   -3.411703|
|         698|   -3.732668|   -3.329448|   -4.291482|   -3.411739|
|         699|   -3.732591|   -3.329428|   -4.291666|   -3.411774|
|         700|   -3.732515|   -3.329407|   -4.291851|   -3.411810|
|         701|   -3.732439|   -3.329386|   -4.292036|   -3.411845|
|         702|   -3.732362|   -3.329365|   -4.292220|   -3.411881|
|         703|   -3.732286|   -3.329344|   -4.292405|   -3.411916|
|         704|   -3.732210|   -3.329323|   -4.292590|   -3.411951|
|         705|   -3.732134|   -3.329302|   -4.292776|   -3.411987|
|         706|   -3.732059|   -3.329281|   -4.292961|   -3.412022|
|         707|   -3.731983|   -3.329260|   -4.293147|   -3.412057|
|         708|   -3.731907|   -3.329239|   -4.293333|   -3.412092|
|         709|   -3.731831|   -3.329217|   -4.293519|   -3.412127|
|         710|   -3.731756|   -3.329196|   -4.293705|   -3.412162|
|         711|   -3.731680|   -3.329175|   -4.293891|   -3.412197|
|         712|   -3.731605|   -3.329153|   -4.294078|   -3.412232|
|         713|   -3.731530|   -3.329132|   -4.294264|   -3.412267|
|         714|   -3.731455|   -3.329110|   -4.294451|   -3.412301|
|         715|   -3.731379|   -3.329089|   -4.294638|   -3.412336|
|         716|   -3.731304|   -3.329067|   -4.294825|   -3.412371|
|         717|   -3.731229|   -3.329046|   -4.295012|   -3.412405|
|         718|   -3.731154|   -3.329024|   -4.295200|   -3.412440|
|         719|   -3.731080|   -3.329002|   -4.295387|   -3.412475|
|         720|   -3.731005|   -3.328980|   -4.295575|   -3.412509|
|         721|   -3.730930|   -3.328959|   -4.295763|   -3.412543|
|         722|   -3.730855|   -3.328937|   -4.295951|   -3.412578|
|         723|   -3.730781|   -3.328915|   -4.296139|   -3.412612|
|         724|   -3.730707|   -3.328893|   -4.296328|   -3.412646|
|         725|   -3.730632|   -3.328871|   -4.296516|   -3.412681|
|         726|   -3.730558|   -3.328849|   -4.296705|   -3.412715|
|         727|   -3.730484|   -3.328827|   -4.296894|   -3.412749|
|         728|   -3.730410|   -3.328804|   -4.297083|   -3.412783|
|         729|   -3.730335|   -3.328782|   -4.297272|   -3.412817|
|         730|   -3.730261|   -3.328760|   -4.297461|   -3.412851|
|         731|   -3.730188|   -3.328738|   -4.297651|   -3.412885|
|         732|   -3.730114|   -3.328715|   -4.297840|   -3.412919|
|         733|   -3.730040|   -3.328693|   -4.298030|   -3.412953|
|         734|   -3.729966|   -3.328671|   -4.298220|   -3.412986|
|         735|   -3.729893|   -3.328648|   -4.298410|   -3.413020|
|         736|   -3.729819|   -3.328626|   -4.298600|   -3.413054|
|         737|   -3.729746|   -3.328603|   -4.298790|   -3.413087|
|         738|   -3.729673|   -3.328581|   -4.298981|   -3.413121|
|         739|   -3.729599|   -3.328558|   -4.299171|   -3.413154|
|         740|   -3.729526|   -3.328535|   -4.299362|   -3.413188|
|         741|   -3.729453|   -3.328513|   -4.299553|   -3.413221|
|         742|   -3.729380|   -3.328490|   -4.299744|   -3.413255|
|         743|   -3.729307|   -3.328467|   -4.299935|   -3.413288|
|         744|   -3.729234|   -3.328444|   -4.300126|   -3.413321|
|         745|   -3.729161|   -3.328422|   -4.300318|   -3.413354|
|         746|   -3.729089|   -3.328399|   -4.300509|   -3.413388|
|         747|   -3.729016|   -3.328376|   -4.300701|   -3.413421|
|         748|   -3.728944|   -3.328353|   -4.300893|   -3.413454|
|         749|   -3.728871|   -3.328330|   -4.301085|   -3.413487|
|         750|   -3.728799|   -3.328307|   -4.301277|   -3.413520|
|         751|   -3.728726|   -3.328284|   -4.301469|   -3.413553|
|         752|   -3.728654|   -3.328261|   -4.301661|   -3.413586|
|         753|   -3.728582|   -3.328237|   -4.301854|   -3.413619|
|         754|   -3.728510|   -3.328214|   -4.302046|   -3.413651|
|         755|   -3.728438|   -3.328191|   -4.302239|   -3.413684|
|         756|   -3.728366|   -3.328168|   -4.302432|   -3.413717|
|         757|   -3.728294|   -3.328145|   -4.302625|   -3.413749|
|         758|   -3.728223|   -3.328121|   -4.302818|   -3.413782|
|         759|   -3.728151|   -3.328098|   -4.303011|   -3.413815|
|         760|   -3.728079|   -3.328075|   -4.303204|   -3.413847|
|         761|   -3.728008|   -3.328051|   -4.303398|   -3.413879|
|         762|   -3.727936|   -3.328028|   -4.303592|   -3.413912|
|         763|   -3.727865|   -3.328004|   -4.303785|   -3.413944|
|         764|   -3.727794|   -3.327981|   -4.303979|   -3.413977|
|         765|   -3.727723|   -3.327957|   -4.304173|   -3.414009|
|         766|   -3.727651|   -3.327934|   -4.304367|   -3.414041|
|         767|   -3.727580|   -3.327910|   -4.304561|   -3.414073|
|         768|   -3.727509|   -3.327886|   -4.304756|   -3.414105|
|         769|   -3.727439|   -3.327863|   -4.304950|   -3.414137|
|         770|   -3.727368|   -3.327839|   -4.305145|   -3.414169|
|         771|   -3.727297|   -3.327815|   -4.305340|   -3.414201|
|         772|   -3.727227|   -3.327791|   -4.305534|   -3.414233|
|         773|   -3.727156|   -3.327768|   -4.305729|   -3.414265|
|         774|   -3.727086|   -3.327744|   -4.305924|   -3.414297|
|         775|   -3.727015|   -3.327720|   -4.306119|   -3.414329|
|         776|   -3.726945|   -3.327696|   -4.306315|   -3.414361|
|         777|   -3.726875|   -3.327672|   -4.306510|   -3.414392|
|         778|   -3.726804|   -3.327648|   -4.306706|   -3.414424|
|         779|   -3.726734|   -3.327624|   -4.306901|   -3.414456|
|         780|   -3.726664|   -3.327600|   -4.307097|   -3.414487|
|         781|   -3.726594|   -3.327576|   -4.307293|   -3.414519|
|         782|   -3.726525|   -3.327552|   -4.307489|   -3.414550|
|         783|   -3.726455|   -3.327528|   -4.307685|   -3.414582|
|         784|   -3.726385|   -3.327504|   -4.307881|   -3.414613|
|         785|   -3.726316|   -3.327480|   -4.308077|   -3.414645|
|         786|   -3.726246|   -3.327456|   -4.308273|   -3.414676|
|         787|   -3.726177|   -3.327431|   -4.308470|   -3.414707|
|         788|   -3.726107|   -3.327407|   -4.308666|   -3.414738|
|         789|   -3.726038|   -3.327383|   -4.308863|   -3.414769|
|         790|   -3.725969|   -3.327359|   -4.309060|   -3.414801|
|         791|   -3.725900|   -3.327334|   -4.309257|   -3.414832|
|         792|   -3.725831|   -3.327310|   -4.309454|   -3.414863|
|         793|   -3.725762|   -3.327286|   -4.309651|   -3.414894|
|         794|   -3.725693|   -3.327261|   -4.309848|   -3.414925|
|         795|   -3.725624|   -3.327237|   -4.310045|   -3.414956|
|         796|   -3.725555|   -3.327212|   -4.310243|   -3.414986|
|         797|   -3.725487|   -3.327188|   -4.310440|   -3.415017|
|         798|   -3.725418|   -3.327163|   -4.310638|   -3.415048|
|         799|   -3.725350|   -3.327139|   -4.310835|   -3.415079|
|         800|   -3.725281|   -3.327114|   -4.311033|   -3.415109|
|         801|   -3.725213|   -3.327090|   -4.311231|   -3.415140|
|         802|   -3.725145|   -3.327065|   -4.311429|   -3.415171|
|         803|   -3.725077|   -3.327041|   -4.311627|   -3.415201|
|         804|   -3.725009|   -3.327016|   -4.311825|   -3.415232|
|         805|   -3.724941|   -3.326991|   -4.312023|   -3.415262|
|         806|   -3.724873|   -3.326967|   -4.312222|   -3.415293|
|         807|   -3.724805|   -3.326942|   -4.312420|   -3.415323|
|         808|   -3.724737|   -3.326917|   -4.312619|   -3.415353|
|         809|   -3.724669|   -3.326892|   -4.312817|   -3.415384|
|         810|   -3.724602|   -3.326868|   -4.313016|   -3.415414|
|         811|   -3.724534|   -3.326843|   -4.313215|   -3.415444|
|         812|   -3.724467|   -3.326818|   -4.313414|   -3.415474|
|         813|   -3.724400|   -3.326793|   -4.313613|   -3.415505|
|         814|   -3.724332|   -3.326768|   -4.313812|   -3.415535|
|         815|   -3.724265|   -3.326744|   -4.314011|   -3.415565|
|         816|   -3.724198|   -3.326719|   -4.314210|   -3.415595|
|         817|   -3.724131|   -3.326694|   -4.314409|   -3.415625|
|         818|   -3.724064|   -3.326669|   -4.314609|   -3.415655|
|         819|   -3.723997|   -3.326644|   -4.314808|   -3.415684|
|         820|   -3.723930|   -3.326619|   -4.315008|   -3.415714|
|         821|   -3.723864|   -3.326594|   -4.315207|   -3.415744|
|         822|   -3.723797|   -3.326569|   -4.315407|   -3.415774|
|         823|   -3.723730|   -3.326544|   -4.315607|   -3.415804|
|         824|   -3.723664|   -3.326519|   -4.315807|   -3.415833|
|         825|   -3.723597|   -3.326494|   -4.316007|   -3.415863|
|         826|   -3.723531|   -3.326468|   -4.316207|   -3.415892|
|         827|   -3.723465|   -3.326443|   -4.316407|   -3.415922|
|         828|   -3.723399|   -3.326418|   -4.316607|   -3.415952|
|         829|   -3.723332|   -3.326393|   -4.316808|   -3.415981|
|         830|   -3.723266|   -3.326368|   -4.317008|   -3.416010|
|         831|   -3.723201|   -3.326343|   -4.317208|   -3.416040|
|         832|   -3.723135|   -3.326317|   -4.317409|   -3.416069|
|         833|   -3.723069|   -3.326292|   -4.317610|   -3.416098|
|         834|   -3.723003|   -3.326267|   -4.317810|   -3.416128|
|         835|   -3.722937|   -3.326242|   -4.318011|   -3.416157|
|         836|   -3.722872|   -3.326216|   -4.318212|   -3.416186|
|         837|   -3.722806|   -3.326191|   -4.318413|   -3.416215|
|         838|   -3.722741|   -3.326166|   -4.318614|   -3.416244|
|         839|   -3.722676|   -3.326140|   -4.318815|   -3.416273|
|         840|   -3.722610|   -3.326115|   -4.319016|   -3.416302|
|         841|   -3.722545|   -3.326090|   -4.319217|   -3.416331|
|         842|   -3.722480|   -3.326064|   -4.319418|   -3.416360|
|         843|   -3.722415|   -3.326039|   -4.319620|   -3.416389|
|         844|   -3.722350|   -3.326013|   -4.319821|   -3.416418|
|         845|   -3.722285|   -3.325988|   -4.320023|   -3.416447|
|         846|   -3.722221|   -3.325962|   -4.320224|   -3.416476|
|         847|   -3.722156|   -3.325937|   -4.320426|   -3.416504|
|         848|   -3.722091|   -3.325911|   -4.320628|   -3.416533|
|         849|   -3.722027|   -3.325886|   -4.320829|   -3.416562|
|         850|   -3.721962|   -3.325860|   -4.321031|   -3.416590|
|         851|   -3.721898|   -3.325835|   -4.321233|   -3.416619|
|         852|   -3.721834|   -3.325809|   -4.321435|   -3.416648|
|         853|   -3.721769|   -3.325784|   -4.321637|   -3.416676|
|         854|   -3.721705|   -3.325758|   -4.321839|   -3.416705|
|         855|   -3.721641|   -3.325732|   -4.322041|   -3.416733|
|         856|   -3.721577|   -3.325707|   -4.322243|   -3.416761|
|         857|   -3.721513|   -3.325681|   -4.322446|   -3.416790|
|         858|   -3.721449|   -3.325655|   -4.322648|   -3.416818|
|         859|   -3.721386|   -3.325630|   -4.322850|   -3.416846|
|         860|   -3.721322|   -3.325604|   -4.323053|   -3.416875|
|         861|   -3.721258|   -3.325578|   -4.323255|   -3.416903|
|         862|   -3.721195|   -3.325553|   -4.323458|   -3.416931|
|         863|   -3.721131|   -3.325527|   -4.323661|   -3.416959|
|         864|   -3.721068|   -3.325501|   -4.323863|   -3.416987|
|         865|   -3.721004|   -3.325475|   -4.324066|   -3.417015|
|         866|   -3.720941|   -3.325450|   -4.324269|   -3.417043|
|         867|   -3.720878|   -3.325424|   -4.324472|   -3.417071|
|         868|   -3.720815|   -3.325398|   -4.324675|   -3.417099|
|         869|   -3.720752|   -3.325372|   -4.324878|   -3.417127|
|         870|   -3.720689|   -3.325346|   -4.325081|   -3.417155|
|         871|   -3.720626|   -3.325321|   -4.325284|   -3.417183|
|         872|   -3.720563|   -3.325295|   -4.325487|   -3.417210|
|         873|   -3.720501|   -3.325269|   -4.325690|   -3.417238|
|         874|   -3.720438|   -3.325243|   -4.325894|   -3.417266|
|         875|   -3.720375|   -3.325217|   -4.326097|   -3.417293|
|         876|   -3.720313|   -3.325191|   -4.326300|   -3.417321|
|         877|   -3.720251|   -3.325165|   -4.326504|   -3.417349|
|         878|   -3.720188|   -3.325139|   -4.326707|   -3.417376|
|         879|   -3.720126|   -3.325113|   -4.326911|   -3.417404|
|         880|   -3.720064|   -3.325087|   -4.327114|   -3.417431|
|         881|   -3.720002|   -3.325061|   -4.327318|   -3.417459|
|         882|   -3.719940|   -3.325035|   -4.327522|   -3.417486|
|         883|   -3.719878|   -3.325009|   -4.327725|   -3.417513|
|         884|   -3.719816|   -3.324983|   -4.327929|   -3.417541|
|         885|   -3.719754|   -3.324957|   -4.328133|   -3.417568|
|         886|   -3.719692|   -3.324931|   -4.328337|   -3.417595|
|         887|   -3.719631|   -3.324905|   -4.328541|   -3.417623|
|         888|   -3.719569|   -3.324879|   -4.328745|   -3.417650|
|         889|   -3.719507|   -3.324853|   -4.328949|   -3.417677|
|         890|   -3.719446|   -3.324827|   -4.329153|   -3.417704|
|         891|   -3.719385|   -3.324801|   -4.329357|   -3.417731|
|         892|   -3.719323|   -3.324775|   -4.329561|   -3.417758|
|         893|   -3.719262|   -3.324749|   -4.329766|   -3.417785|
|         894|   -3.719201|   -3.324723|   -4.329970|   -3.417812|
|         895|   -3.719140|   -3.324697|   -4.330174|   -3.417839|
|         896|   -3.719079|   -3.324670|   -4.330379|   -3.417866|
|         897|   -3.719018|   -3.324644|   -4.330583|   -3.417893|
|         898|   -3.718957|   -3.324618|   -4.330787|   -3.417919|
|         899|   -3.718896|   -3.324592|   -4.330992|   -3.417946|
|         900|   -3.718836|   -3.324566|   -4.331196|   -3.417973|
|         901|   -3.718775|   -3.324540|   -4.331401|   -3.418000|
|         902|   -3.718715|   -3.324513|   -4.331606|   -3.418026|
|         903|   -3.718654|   -3.324487|   -4.331810|   -3.418053|
|         904|   -3.718594|   -3.324461|   -4.332015|   -3.418080|
|         905|   -3.718533|   -3.324435|   -4.332220|   -3.418106|
|         906|   -3.718473|   -3.324408|   -4.332424|   -3.418133|
|         907|   -3.718413|   -3.324382|   -4.332629|   -3.418159|
|         908|   -3.718353|   -3.324356|   -4.332834|   -3.418186|
|         909|   -3.718293|   -3.324330|   -4.333039|   -3.418212|
|         910|   -3.718233|   -3.324303|   -4.333244|   -3.418238|
|         911|   -3.718173|   -3.324277|   -4.333449|   -3.418265|
|         912|   -3.718113|   -3.324251|   -4.333654|   -3.418291|
|         913|   -3.718053|   -3.324224|   -4.333859|   -3.418317|
|         914|   -3.717994|   -3.324198|   -4.334064|   -3.418344|
|         915|   -3.717934|   -3.324172|   -4.334269|   -3.418370|
|         916|   -3.717875|   -3.324145|   -4.334474|   -3.418396|
|         917|   -3.717815|   -3.324119|   -4.334680|   -3.418422|
|         918|   -3.717756|   -3.324093|   -4.334885|   -3.418448|
|         919|   -3.717696|   -3.324066|   -4.335090|   -3.418474|
|         920|   -3.717637|   -3.324040|   -4.335295|   -3.418501|
|         921|   -3.717578|   -3.324014|   -4.335501|   -3.418527|
|         922|   -3.717519|   -3.323987|   -4.335706|   -3.418553|
|         923|   -3.717460|   -3.323961|   -4.335912|   -3.418578|
|         924|   -3.717401|   -3.323934|   -4.336117|   -3.418604|
|         925|   -3.717342|   -3.323908|   -4.336323|   -3.418630|
|         926|   -3.717283|   -3.323882|   -4.336528|   -3.418656|
|         927|   -3.717225|   -3.323855|   -4.336734|   -3.418682|
|         928|   -3.717166|   -3.323829|   -4.336939|   -3.418708|
|         929|   -3.717107|   -3.323802|   -4.337145|   -3.418733|
|         930|   -3.717049|   -3.323776|   -4.337350|   -3.418759|
|         931|   -3.716990|   -3.323749|   -4.337556|   -3.418785|
|         932|   -3.716932|   -3.323723|   -4.337762|   -3.418811|
|         933|   -3.716874|   -3.323696|   -4.337967|   -3.418836|
|         934|   -3.716816|   -3.323670|   -4.338173|   -3.418862|
|         935|   -3.716757|   -3.323643|   -4.338379|   -3.418887|
|         936|   -3.716699|   -3.323617|   -4.338585|   -3.418913|
|         937|   -3.716641|   -3.323590|   -4.338791|   -3.418938|
|         938|   -3.716583|   -3.323564|   -4.338997|   -3.418964|
|         939|   -3.716526|   -3.323537|   -4.339202|   -3.418989|
|         940|   -3.716468|   -3.323511|   -4.339408|   -3.419015|
|         941|   -3.716410|   -3.323484|   -4.339614|   -3.419040|
|         942|   -3.716352|   -3.323458|   -4.339820|   -3.419065|
|         943|   -3.716295|   -3.323431|   -4.340026|   -3.419090|
|         944|   -3.716237|   -3.323405|   -4.340232|   -3.419116|
|         945|   -3.716180|   -3.323378|   -4.340438|   -3.419141|
|         946|   -3.716122|   -3.323351|   -4.340644|   -3.419166|
|         947|   -3.716065|   -3.323325|   -4.340851|   -3.419191|
|         948|   -3.716008|   -3.323298|   -4.341057|   -3.419216|
|         949|   -3.715951|   -3.323272|   -4.341263|   -3.419242|
|         950|   -3.715894|   -3.323245|   -4.341469|   -3.419267|
|         951|   -3.715837|   -3.323218|   -4.341675|   -3.419292|
|         952|   -3.715780|   -3.323192|   -4.341881|   -3.419317|
|         953|   -3.715723|   -3.323165|   -4.342088|   -3.419342|
|         954|   -3.715666|   -3.323139|   -4.342294|   -3.419367|
|         955|   -3.715609|   -3.323112|   -4.342500|   -3.419391|
|         956|   -3.715552|   -3.323085|   -4.342707|   -3.419416|
|         957|   -3.715496|   -3.323059|   -4.342913|   -3.419441|
|         958|   -3.715439|   -3.323032|   -4.343119|   -3.419466|
|         959|   -3.715383|   -3.323005|   -4.343326|   -3.419491|
|         960|   -3.715326|   -3.322979|   -4.343532|   -3.419516|
|         961|   -3.715270|   -3.322952|   -4.343738|   -3.419540|
|         962|   -3.715214|   -3.322925|   -4.343945|   -3.419565|
|         963|   -3.715158|   -3.322899|   -4.344151|   -3.419590|
|         964|   -3.715102|   -3.322872|   -4.344358|   -3.419614|
|         965|   -3.715045|   -3.322845|   -4.344564|   -3.419639|
|         966|   -3.714989|   -3.322819|   -4.344771|   -3.419663|
|         967|   -3.714934|   -3.322792|   -4.344977|   -3.419688|
|         968|   -3.714878|   -3.322765|   -4.345184|   -3.419712|
|         969|   -3.714822|   -3.322738|   -4.345390|   -3.419737|
|         970|   -3.714766|   -3.322712|   -4.345597|   -3.419761|
|         971|   -3.714711|   -3.322685|   -4.345804|   -3.419786|
|         972|   -3.714655|   -3.322658|   -4.346010|   -3.419810|
|         973|   -3.714599|   -3.322631|   -4.346217|   -3.419834|
|         974|   -3.714544|   -3.322605|   -4.346424|   -3.419859|
|         975|   -3.714489|   -3.322578|   -4.346630|   -3.419883|
|         976|   -3.714433|   -3.322551|   -4.346837|   -3.419907|
|         977|   -3.714378|   -3.322524|   -4.347044|   -3.419931|
|         978|   -3.714323|   -3.322498|   -4.347250|   -3.419956|
|         979|   -3.714268|   -3.322471|   -4.347457|   -3.419980|
|         980|   -3.714213|   -3.322444|   -4.347664|   -3.420004|
|         981|   -3.714158|   -3.322417|   -4.347871|   -3.420028|
|         982|   -3.714103|   -3.322391|   -4.348077|   -3.420052|
|         983|   -3.714048|   -3.322364|   -4.348284|   -3.420076|
|         984|   -3.713993|   -3.322337|   -4.348491|   -3.420100|
|         985|   -3.713939|   -3.322310|   -4.348698|   -3.420124|
|         986|   -3.713884|   -3.322283|   -4.348905|   -3.420148|
|         987|   -3.713829|   -3.322257|   -4.349111|   -3.420172|
|         988|   -3.713775|   -3.322230|   -4.349318|   -3.420196|
|         989|   -3.713721|   -3.322203|   -4.349525|   -3.420220|
|         990|   -3.713666|   -3.322176|   -4.349732|   -3.420244|
|         991|   -3.713612|   -3.322149|   -4.349939|   -3.420268|
|         992|   -3.713558|   -3.322123|   -4.350146|   -3.420291|
[...]
|        5710|   -3.661672|   -3.199862|   -4.797176|   -3.464953|
|        5711|   -3.661671|   -3.199835|   -4.797163|   -3.464961|
|        5712|   -3.661670|   -3.199807|   -4.797151|   -3.464969|
|        5713|   -3.661670|   -3.199780|   -4.797138|   -3.464977|
|        5714|   -3.661669|   -3.199752|   -4.797126|   -3.464985|
|        5715|   -3.661668|   -3.199725|   -4.797113|   -3.464993|
|        5716|   -3.661668|   -3.199697|   -4.797101|   -3.465001|
|        5717|   -3.661667|   -3.199669|   -4.797088|   -3.465009|
|        5718|   -3.661667|   -3.199642|   -4.797075|   -3.465017|
|        5719|   -3.661666|   -3.199614|   -4.797063|   -3.465025|
|        5720|   -3.661665|   -3.199587|   -4.797050|   -3.465033|
|        5721|   -3.661665|   -3.199559|   -4.797038|   -3.465040|
|        5722|   -3.661664|   -3.199532|   -4.797025|   -3.465048|
|        5723|   -3.661663|   -3.199504|   -4.797012|   -3.465056|
|        5724|   -3.661663|   -3.199477|   -4.796999|   -3.465064|
|        5725|   -3.661662|   -3.199449|   -4.796987|   -3.465072|
|        5726|   -3.661661|   -3.199422|   -4.796974|   -3.465080|
|        5727|   -3.661661|   -3.199394|   -4.796961|   -3.465088|
|        5728|   -3.661660|   -3.199367|   -4.796948|   -3.465096|
|        5729|   -3.661659|   -3.199339|   -4.796936|   -3.465104|
|        5730|   -3.661659|   -3.199312|   -4.796923|   -3.465112|
|        5731|   -3.661658|   -3.199284|   -4.796910|   -3.465120|
|        5732|   -3.661658|   -3.199256|   -4.796897|   -3.465128|
|        5733|   -3.661657|   -3.199229|   -4.796884|   -3.465135|
|        5734|   -3.661656|   -3.199201|   -4.796872|   -3.465143|
|        5735|   -3.661656|   -3.199174|   -4.796859|   -3.465151|
|        5736|   -3.661655|   -3.199146|   -4.796846|   -3.465159|
|        5737|   -3.661654|   -3.199119|   -4.796833|   -3.465167|
|        5738|   -3.661654|   -3.199091|   -4.796820|   -3.465175|
|        5739|   -3.661653|   -3.199064|   -4.796807|   -3.465183|
|        5740|   -3.661652|   -3.199036|   -4.796794|   -3.465191|
|        5741|   -3.661652|   -3.199009|   -4.796781|   -3.465199|
|        5742|   -3.661651|   -3.198982|   -4.796768|   -3.465207|
|        5743|   -3.661650|   -3.198954|   -4.796755|   -3.465215|
|        5744|   -3.661650|   -3.198927|   -4.796742|   -3.465222|
|        5745|   -3.661649|   -3.198899|   -4.796729|   -3.465230|
|        5746|   -3.661649|   -3.198872|   -4.796716|   -3.465238|
|        5747|   -3.661648|   -3.198844|   -4.796703|   -3.465246|
|        5748|   -3.661647|   -3.198817|   -4.796690|   -3.465254|
|        5749|   -3.661647|   -3.198789|   -4.796677|   -3.465262|
|        5750|   -3.661646|   -3.198762|   -4.796663|   -3.465270|
|        5751|   -3.661645|   -3.198734|   -4.796650|   -3.465278|
|        5752|   -3.661645|   -3.198707|   -4.796637|   -3.465286|
|        5753|   -3.661644|   -3.198679|   -4.796624|   -3.465293|
|        5754|   -3.661643|   -3.198652|   -4.796611|   -3.465301|
|        5755|   -3.661643|   -3.198624|   -4.796598|   -3.465309|
|        5756|   -3.661642|   -3.198597|   -4.796584|   -3.465317|
|        5757|   -3.661641|   -3.198570|   -4.796571|   -3.465325|
|        5758|   -3.661641|   -3.198542|   -4.796558|   -3.465333|
|        5759|   -3.661640|   -3.198515|   -4.796545|   -3.465341|
|        5760|   -3.661639|   -3.198487|   -4.796531|   -3.465349|
|        5761|   -3.661639|   -3.198460|   -4.796518|   -3.465356|
|        5762|   -3.661638|   -3.198432|   -4.796505|   -3.465364|
|        5763|   -3.661638|   -3.198405|   -4.796491|   -3.465372|
|        5764|   -3.661637|   -3.198377|   -4.796478|   -3.465380|
|        5765|   -3.661636|   -3.198350|   -4.796465|   -3.465388|
|        5766|   -3.661636|   -3.198323|   -4.796451|   -3.465396|
|        5767|   -3.661635|   -3.198295|   -4.796438|   -3.465404|
|        5768|   -3.661634|   -3.198268|   -4.796424|   -3.465412|
|        5769|   -3.661634|   -3.198240|   -4.796411|   -3.465419|
|        5770|   -3.661633|   -3.198213|   -4.796398|   -3.465427|
|        5771|   -3.661632|   -3.198186|   -4.796384|   -3.465435|
|        5772|   -3.661632|   -3.198158|   -4.796371|   -3.465443|
|        5773|   -3.661631|   -3.198131|   -4.796357|   -3.465451|
|        5774|   -3.661630|   -3.198103|   -4.796344|   -3.465459|
|        5775|   -3.661630|   -3.198076|   -4.796330|   -3.465467|
|        5776|   -3.661629|   -3.198049|   -4.796317|   -3.465474|
|        5777|   -3.661628|   -3.198021|   -4.796303|   -3.465482|
|        5778|   -3.661628|   -3.197994|   -4.796289|   -3.465490|
|        5779|   -3.661627|   -3.197966|   -4.796276|   -3.465498|
|        5780|   -3.661626|   -3.197939|   -4.796262|   -3.465506|
|        5781|   -3.661626|   -3.197912|   -4.796249|   -3.465514|
|        5782|   -3.661625|   -3.197884|   -4.796235|   -3.465522|
|        5783|   -3.661624|   -3.197857|   -4.796221|   -3.465529|
|        5784|   -3.661624|   -3.197829|   -4.796208|   -3.465537|
|        5785|   -3.661623|   -3.197802|   -4.796194|   -3.465545|
|        5786|   -3.661623|   -3.197775|   -4.796180|   -3.465553|
|        5787|   -3.661622|   -3.197747|   -4.796167|   -3.465561|
|        5788|   -3.661621|   -3.197720|   -4.796153|   -3.465569|
|        5789|   -3.661621|   -3.197693|   -4.796139|   -3.465576|
|        5790|   -3.661620|   -3.197665|   -4.796125|   -3.465584|
|        5791|   -3.661619|   -3.197638|   -4.796112|   -3.465592|
|        5792|   -3.661619|   -3.197611|   -4.796098|   -3.465600|
|        5793|   -3.661618|   -3.197583|   -4.796084|   -3.465608|
|        5794|   -3.661617|   -3.197556|   -4.796070|   -3.465616|
|        5795|   -3.661617|   -3.197529|   -4.796056|   -3.465623|
|        5796|   -3.661616|   -3.197501|   -4.796043|   -3.465631|
|        5797|   -3.661615|   -3.197474|   -4.796029|   -3.465639|
|        5798|   -3.661615|   -3.197447|   -4.796015|   -3.465647|
|        5799|   -3.661614|   -3.197419|   -4.796001|   -3.465655|
|        5800|   -3.661613|   -3.197392|   -4.795987|   -3.465663|
|        5801|   -3.661613|   -3.197365|   -4.795973|   -3.465670|
|        5802|   -3.661612|   -3.197337|   -4.795959|   -3.465678|
|        5803|   -3.661611|   -3.197310|   -4.795945|   -3.465686|
|        5804|   -3.661611|   -3.197283|   -4.795931|   -3.465694|
|        5805|   -3.661610|   -3.197255|   -4.795917|   -3.465702|
|        5806|   -3.661609|   -3.197228|   -4.795903|   -3.465709|
|        5807|   -3.661609|   -3.197201|   -4.795889|   -3.465717|
|        5808|   -3.661608|   -3.197173|   -4.795875|   -3.465725|
|        5809|   -3.661607|   -3.197146|   -4.795861|   -3.465733|
|        5810|   -3.661607|   -3.197119|   -4.795847|   -3.465741|
|        5811|   -3.661606|   -3.197091|   -4.795833|   -3.465749|
|        5812|   -3.661605|   -3.197064|   -4.795819|   -3.465756|
|        5813|   -3.661605|   -3.197037|   -4.795805|   -3.465764|
|        5814|   -3.661604|   -3.197010|   -4.795791|   -3.465772|
|        5815|   -3.661603|   -3.196982|   -4.795777|   -3.465780|
|        5816|   -3.661603|   -3.196955|   -4.795762|   -3.465788|
|        5817|   -3.661602|   -3.196928|   -4.795748|   -3.465795|
|        5818|   -3.661601|   -3.196900|   -4.795734|   -3.465803|
|        5819|   -3.661601|   -3.196873|   -4.795720|   -3.465811|
|        5820|   -3.661600|   -3.196846|   -4.795706|   -3.465819|
|        5821|   -3.661599|   -3.196819|   -4.795691|   -3.465827|
|        5822|   -3.661599|   -3.196791|   -4.795677|   -3.465834|
|        5823|   -3.661598|   -3.196764|   -4.795663|   -3.465842|
|        5824|   -3.661597|   -3.196737|   -4.795649|   -3.465850|
|        5825|   -3.661597|   -3.196710|   -4.795634|   -3.465858|
|        5826|   -3.661596|   -3.196682|   -4.795620|   -3.465866|
|        5827|   -3.661595|   -3.196655|   -4.795606|   -3.465873|
|        5828|   -3.661595|   -3.196628|   -4.795591|   -3.465881|
|        5829|   -3.661594|   -3.196601|   -4.795577|   -3.465889|
|        5830|   -3.661593|   -3.196573|   -4.795563|   -3.465897|
|        5831|   -3.661593|   -3.196546|   -4.795548|   -3.465904|
|        5832|   -3.661592|   -3.196519|   -4.795534|   -3.465912|
|        5833|   -3.661591|   -3.196492|   -4.795520|   -3.465920|
|        5834|   -3.661591|   -3.196464|   -4.795505|   -3.465928|
|        5835|   -3.661590|   -3.196437|   -4.795491|   -3.465936|
|        5836|   -3.661589|   -3.196410|   -4.795476|   -3.465943|
|        5837|   -3.661589|   -3.196383|   -4.795462|   -3.465951|
|        5838|   -3.661588|   -3.196356|   -4.795447|   -3.465959|
|        5839|   -3.661587|   -3.196328|   -4.795433|   -3.465967|
|        5840|   -3.661587|   -3.196301|   -4.795418|   -3.465974|
|        5841|   -3.661586|   -3.196274|   -4.795404|   -3.465982|
|        5842|   -3.661585|   -3.196247|   -4.795389|   -3.465990|
|        5843|   -3.661585|   -3.196220|   -4.795375|   -3.465998|
|        5844|   -3.661584|   -3.196192|   -4.795360|   -3.466006|
|        5845|   -3.661583|   -3.196165|   -4.795346|   -3.466013|
|        5846|   -3.661583|   -3.196138|   -4.795331|   -3.466021|
|        5847|   -3.661582|   -3.196111|   -4.795316|   -3.466029|
|        5848|   -3.661581|   -3.196084|   -4.795302|   -3.466037|
|        5849|   -3.661581|   -3.196056|   -4.795287|   -3.466044|
|        5850|   -3.661580|   -3.196029|   -4.795273|   -3.466052|
|        5851|   -3.661579|   -3.196002|   -4.795258|   -3.466060|
|        5852|   -3.661579|   -3.195975|   -4.795243|   -3.466068|
|        5853|   -3.661578|   -3.195948|   -4.795228|   -3.466075|
|        5854|   -3.661577|   -3.195921|   -4.795214|   -3.466083|
|        5855|   -3.661577|   -3.195893|   -4.795199|   -3.466091|
|        5856|   -3.661576|   -3.195866|   -4.795184|   -3.466099|
|        5857|   -3.661575|   -3.195839|   -4.795170|   -3.466106|
|        5858|   -3.661575|   -3.195812|   -4.795155|   -3.466114|
|        5859|   -3.661574|   -3.195785|   -4.795140|   -3.466122|
|        5860|   -3.661573|   -3.195758|   -4.795125|   -3.466130|
|        5861|   -3.661573|   -3.195730|   -4.795110|   -3.466137|
|        5862|   -3.661572|   -3.195703|   -4.795096|   -3.466145|
|        5863|   -3.661571|   -3.195676|   -4.795081|   -3.466153|
|        5864|   -3.661571|   -3.195649|   -4.795066|   -3.466161|
|        5865|   -3.661570|   -3.195622|   -4.795051|   -3.466168|
|        5866|   -3.661569|   -3.195595|   -4.795036|   -3.466176|
|        5867|   -3.661569|   -3.195568|   -4.795021|   -3.466184|
|        5868|   -3.661568|   -3.195540|   -4.795006|   -3.466192|
|        5869|   -3.661567|   -3.195513|   -4.794991|   -3.466199|
|        5870|   -3.661566|   -3.195486|   -4.794977|   -3.466207|
|        5871|   -3.661566|   -3.195459|   -4.794962|   -3.466215|
|        5872|   -3.661565|   -3.195432|   -4.794947|   -3.466223|
|        5873|   -3.661564|   -3.195405|   -4.794932|   -3.466230|
|        5874|   -3.661564|   -3.195378|   -4.794917|   -3.466238|
|        5875|   -3.661563|   -3.195351|   -4.794902|   -3.466246|
|        5876|   -3.661562|   -3.195324|   -4.794887|   -3.466253|
|        5877|   -3.661562|   -3.195296|   -4.794872|   -3.466261|
|        5878|   -3.661561|   -3.195269|   -4.794857|   -3.466269|
|        5879|   -3.661560|   -3.195242|   -4.794841|   -3.466277|
|        5880|   -3.661560|   -3.195215|   -4.794826|   -3.466284|
|        5881|   -3.661559|   -3.195188|   -4.794811|   -3.466292|
|        5882|   -3.661558|   -3.195161|   -4.794796|   -3.466300|
|        5883|   -3.661558|   -3.195134|   -4.794781|   -3.466308|
|        5884|   -3.661557|   -3.195107|   -4.794766|   -3.466315|
|        5885|   -3.661556|   -3.195080|   -4.794751|   -3.466323|
|        5886|   -3.661556|   -3.195053|   -4.794736|   -3.466331|
|        5887|   -3.661555|   -3.195026|   -4.794720|   -3.466338|
|        5888|   -3.661554|   -3.194999|   -4.794705|   -3.466346|
|        5889|   -3.661554|   -3.194972|   -4.794690|   -3.466354|
|        5890|   -3.661553|   -3.194944|   -4.794675|   -3.466362|
|        5891|   -3.661552|   -3.194917|   -4.794660|   -3.466369|
|        5892|   -3.661552|   -3.194890|   -4.794644|   -3.466377|
|        5893|   -3.661551|   -3.194863|   -4.794629|   -3.466385|
|        5894|   -3.661550|   -3.194836|   -4.794614|   -3.466392|
|        5895|   -3.661549|   -3.194809|   -4.794599|   -3.466400|
|        5896|   -3.661549|   -3.194782|   -4.794583|   -3.466408|
|        5897|   -3.661548|   -3.194755|   -4.794568|   -3.466415|
|        5898|   -3.661547|   -3.194728|   -4.794553|   -3.466423|
|        5899|   -3.661547|   -3.194701|   -4.794537|   -3.466431|
|        5900|   -3.661546|   -3.194674|   -4.794522|   -3.466439|
|        5901|   -3.661545|   -3.194647|   -4.794507|   -3.466446|
|        5902|   -3.661545|   -3.194620|   -4.794491|   -3.466454|
|        5903|   -3.661544|   -3.194593|   -4.794476|   -3.466462|
|        5904|   -3.661543|   -3.194566|   -4.794460|   -3.466469|
|        5905|   -3.661543|   -3.194539|   -4.794445|   -3.466477|
|        5906|   -3.661542|   -3.194512|   -4.794430|   -3.466485|
|        5907|   -3.661541|   -3.194485|   -4.794414|   -3.466492|
|        5908|   -3.661541|   -3.194458|   -4.794399|   -3.466500|
|        5909|   -3.661540|   -3.194431|   -4.794383|   -3.466508|
|        5910|   -3.661539|   -3.194404|   -4.794368|   -3.466515|
|        5911|   -3.661538|   -3.194377|   -4.794352|   -3.466523|
|        5912|   -3.661538|   -3.194350|   -4.794337|   -3.466531|
|        5913|   -3.661537|   -3.194323|   -4.794321|   -3.466539|
|        5914|   -3.661536|   -3.194296|   -4.794306|   -3.466546|
|        5915|   -3.661536|   -3.194269|   -4.794290|   -3.466554|
|        5916|   -3.661535|   -3.194242|   -4.794274|   -3.466562|
|        5917|   -3.661534|   -3.194215|   -4.794259|   -3.466569|
|        5918|   -3.661534|   -3.194188|   -4.794243|   -3.466577|
|        5919|   -3.661533|   -3.194161|   -4.794228|   -3.466585|
|        5920|   -3.661532|   -3.194134|   -4.794212|   -3.466592|
|        5921|   -3.661532|   -3.194107|   -4.794196|   -3.466600|
|        5922|   -3.661531|   -3.194080|   -4.794181|   -3.466608|
|        5923|   -3.661530|   -3.194053|   -4.794165|   -3.466615|
|        5924|   -3.661530|   -3.194027|   -4.794149|   -3.466623|
|        5925|   -3.661529|   -3.194000|   -4.794134|   -3.466631|
|        5926|   -3.661528|   -3.193973|   -4.794118|   -3.466638|
|        5927|   -3.661527|   -3.193946|   -4.794102|   -3.466646|
|        5928|   -3.661527|   -3.193919|   -4.794087|   -3.466654|
|        5929|   -3.661526|   -3.193892|   -4.794071|   -3.466661|
|        5930|   -3.661525|   -3.193865|   -4.794055|   -3.466669|
|        5931|   -3.661525|   -3.193838|   -4.794039|   -3.466677|
|        5932|   -3.661524|   -3.193811|   -4.794024|   -3.466684|
|        5933|   -3.661523|   -3.193784|   -4.794008|   -3.466692|
|        5934|   -3.661523|   -3.193757|   -4.793992|   -3.466700|
|        5935|   -3.661522|   -3.193730|   -4.793976|   -3.466707|
|        5936|   -3.661521|   -3.193703|   -4.793960|   -3.466715|
|        5937|   -3.661521|   -3.193677|   -4.793944|   -3.466723|
|        5938|   -3.661520|   -3.193650|   -4.793929|   -3.466730|
|        5939|   -3.661519|   -3.193623|   -4.793913|   -3.466738|
|        5940|   -3.661518|   -3.193596|   -4.793897|   -3.466746|
|        5941|   -3.661518|   -3.193569|   -4.793881|   -3.466753|
|        5942|   -3.661517|   -3.193542|   -4.793865|   -3.466761|
|        5943|   -3.661516|   -3.193515|   -4.793849|   -3.466768|
|        5944|   -3.661516|   -3.193488|   -4.793833|   -3.466776|
|        5945|   -3.661515|   -3.193461|   -4.793817|   -3.466784|
|        5946|   -3.661514|   -3.193435|   -4.793801|   -3.466791|
|        5947|   -3.661514|   -3.193408|   -4.793785|   -3.466799|
|        5948|   -3.661513|   -3.193381|   -4.793769|   -3.466807|
|        5949|   -3.661512|   -3.193354|   -4.793753|   -3.466814|
|        5950|   -3.661511|   -3.193327|   -4.793737|   -3.466822|
|        5951|   -3.661511|   -3.193300|   -4.793721|   -3.466830|
|        5952|   -3.661510|   -3.193273|   -4.793705|   -3.466837|
|        5953|   -3.661509|   -3.193247|   -4.793689|   -3.466845|
|        5954|   -3.661509|   -3.193220|   -4.793673|   -3.466852|
|        5955|   -3.661508|   -3.193193|   -4.793657|   -3.466860|
|        5956|   -3.661507|   -3.193166|   -4.793641|   -3.466868|
|        5957|   -3.661507|   -3.193139|   -4.793625|   -3.466875|
|        5958|   -3.661506|   -3.193112|   -4.793609|   -3.466883|
|        5959|   -3.661505|   -3.193086|   -4.793592|   -3.466891|
|        5960|   -3.661504|   -3.193059|   -4.793576|   -3.466898|
|        5961|   -3.661504|   -3.193032|   -4.793560|   -3.466906|
|        5962|   -3.661503|   -3.193005|   -4.793544|   -3.466913|
|        5963|   -3.661502|   -3.192978|   -4.793528|   -3.466921|
|        5964|   -3.661502|   -3.192951|   -4.793512|   -3.466929|
|        5965|   -3.661501|   -3.192925|   -4.793495|   -3.466936|
|        5966|   -3.661500|   -3.192898|   -4.793479|   -3.466944|
|        5967|   -3.661500|   -3.192871|   -4.793463|   -3.466952|
|        5968|   -3.661499|   -3.192844|   -4.793447|   -3.466959|
|        5969|   -3.661498|   -3.192817|   -4.793430|   -3.466967|
|        5970|   -3.661497|   -3.192791|   -4.793414|   -3.466974|
|        5971|   -3.661497|   -3.192764|   -4.793398|   -3.466982|
|        5972|   -3.661496|   -3.192737|   -4.793382|   -3.466990|
|        5973|   -3.661495|   -3.192710|   -4.793365|   -3.466997|
|        5974|   -3.661495|   -3.192684|   -4.793349|   -3.467005|
|        5975|   -3.661494|   -3.192657|   -4.793333|   -3.467012|
|        5976|   -3.661493|   -3.192630|   -4.793316|   -3.467020|
|        5977|   -3.661493|   -3.192603|   -4.793300|   -3.467028|
|        5978|   -3.661492|   -3.192576|   -4.793284|   -3.467035|
|        5979|   -3.661491|   -3.192550|   -4.793267|   -3.467043|
|        5980|   -3.661490|   -3.192523|   -4.793251|   -3.467050|
|        5981|   -3.661490|   -3.192496|   -4.793234|   -3.467058|
|        5982|   -3.661489|   -3.192469|   -4.793218|   -3.467066|
|        5983|   -3.661488|   -3.192443|   -4.793201|   -3.467073|
|        5984|   -3.661488|   -3.192416|   -4.793185|   -3.467081|
|        5985|   -3.661487|   -3.192389|   -4.793169|   -3.467088|
|        5986|   -3.661486|   -3.192362|   -4.793152|   -3.467096|
|        5987|   -3.661486|   -3.192336|   -4.793136|   -3.467104|
|        5988|   -3.661485|   -3.192309|   -4.793119|   -3.467111|
|        5989|   -3.661484|   -3.192282|   -4.793103|   -3.467119|
|        5990|   -3.661483|   -3.192256|   -4.793086|   -3.467126|
|        5991|   -3.661483|   -3.192229|   -4.793070|   -3.467134|
|        5992|   -3.661482|   -3.192202|   -4.793053|   -3.467142|
|        5993|   -3.661481|   -3.192175|   -4.793036|   -3.467149|
|        5994|   -3.661481|   -3.192149|   -4.793020|   -3.467157|
|        5995|   -3.661480|   -3.192122|   -4.793003|   -3.467164|
|        5996|   -3.661479|   -3.192095|   -4.792987|   -3.467172|
|        5997|   -3.661478|   -3.192069|   -4.792970|   -3.467180|
|        5998|   -3.661478|   -3.192042|   -4.792953|   -3.467187|
|        5999|   -3.661477|   -3.192015|   -4.792937|   -3.467195|
|        6000|   -3.661476|   -3.191989|   -4.792920|   -3.467202|
+-----------------------------------------------------------------------+
|        File Writing Summary       |              Filename             |
+-----------------------------------------------------------------------+
|SU2 restart                        |restart_verification_mixtureviscosity_smallbox_turb.dat|
|                                   |                     (2.56512 MB/s)|
|Paraview                           |flow_verification_mixtureviscosity_smallbox_turb_00006000.vtu|
