scsub> Executing:  'cd /home/hem1dev/Codes/SU2_Github_Mark_Test/SU2/Venturi'


WARNING: CONV_CRITERIA is deprecated. SU2 will choose the criteria automatically based on the CONV_FIELD.
That is, RESIDUAL for any RMS_* BGS_* value, and CAUCHY for coefficients such as DRAG etc.


-------------------------------------------------------------------------
|    ___ _   _ ___                                                      |
|   / __| | | |_  )   Release 7.1.1 "Blackbird"                         |
|   \__ \ |_| |/ /                                                      |
|   |___/\___//___|   Suite (Computational Fluid Dynamics Code)         |
|                                                                       |
-------------------------------------------------------------------------
| SU2 Project Website: https://su2code.github.io                        |
|                                                                       |
| The SU2 Project is maintained by the SU2 Foundation                   |
| (http://su2foundation.org)                                            |
-------------------------------------------------------------------------
| Copyright 2012-2021, SU2 Contributors                                 |
|                                                                       |
| SU2 is free software; you can redistribute it and/or                  |
| modify it under the terms of the GNU Lesser General Public            |
| License as published by the Free Software Foundation; either          |
| version 2.1 of the License, or (at your option) any later version.    |
|                                                                       |
| SU2 is distributed in the hope that it will be useful,                |
| but WITHOUT ANY WARRANTY; without even the implied warranty of        |
| MERCHANTABILITY or FITNESS FOR A PARTICULAR PURPOSE. See the GNU      |
| Lesser General Public License for more details.                       |
|                                                                       |
| You should have received a copy of the GNU Lesser General Public      |
| License along with SU2. If not, see <http://www.gnu.org/licenses/>.   |
-------------------------------------------------------------------------


WARNING: CONV_CRITERIA is deprecated. SU2 will choose the criteria automatically based on the CONV_FIELD.
That is, RESIDUAL for any RMS_* BGS_* value, and CAUCHY for coefficients such as DRAG etc.


Parsing config file for zone 0


WARNING: CONV_CRITERIA is deprecated. SU2 will choose the criteria automatically based on the CONV_FIELD.
That is, RESIDUAL for any RMS_* BGS_* value, and CAUCHY for coefficients such as DRAG etc.


----------------- Physical Case Definition ( Zone 0 ) -------------------
Incompressible RANS equations.
Turbulence model: Menter's SST
Hybrid RANS/LES: No Hybrid RANS/LES
No restart solution, use the values at infinity (freestream).
Dimensional simulation.
The reference area is 1 m^2.
The semi-span will be computed using the max y(3D) value.
The reference length is 1 m.
Input mesh file name: c6_cms_venturi.cgns

--------------- Space Numerical Integration ( Zone 0 ) ------------------
Flux difference splitting (FDS) upwind scheme for the flow inviscid terms.
Second order integration in space, with slope limiter.
No slope-limiting method. 
Average of gradients with correction (viscous flow terms).
Average of gradients with correction (viscous turbulence terms).
Gradient for upwind reconstruction: inverse-distance weighted Least-Squares.
Gradient for viscous and source terms: inverse-distance weighted Least-Squares.

--------------- Time Numerical Integration  ( Zone 0 ) ------------------
Local time stepping (steady state simulation).
Euler implicit method for the flow equations.
FGMRES is used for solving the linear system.
Using a ILU(0) preconditioning.
Convergence criteria of the linear solver: 1e-08.
Max number of linear iterations: 20.
No CFL adaptation.
Courant-Friedrichs-Lewy number:      305
Euler implicit time integration for the turbulence model.

------------------ Convergence Criteria  ( Zone 0 ) ---------------------
Maximum number of solver subiterations: 50000.
Begin convergence monitoring at iteration 10.
Residual minimum value: 1e-10.
Cauchy series min. value: 1e-06.
Number of Cauchy elements: 100.
Begin windowed time average at iteration 0.

-------------------- Output Information ( Zone 0 ) ----------------------
Writing solution files every 5000 iterations.
Writing the convergence history file every 1 inner iterations.
Writing the screen convergence history every 1 inner iterations.
The tabular file format is CSV (.csv).
Convergence history file name: history_test.
Forces breakdown file name: forces_breakdown.dat.
Surface file name: surface_flow_venturi_mixturedensity_30kW_fine_test.
Volume file name: flow_venturi_mixturedensity_30kW_fine_test.
Restart file name: restart_venturi_mixturedensity_30kW_fine_test.dat.

------------- Config File Boundary Information ( Zone 0 ) ---------------
+-----------------------------------------------------------------------+
|                        Marker Type|                        Marker Name|
+-----------------------------------------------------------------------+
|                     Symmetry plane|                               axis|
+-----------------------------------------------------------------------+
|                     Inlet boundary|                          gas_inlet|
|                                   |                          air_inlet|
+-----------------------------------------------------------------------+
|                    Outlet boundary|                             outlet|
+-----------------------------------------------------------------------+
|                     Heat flux wall|            wall-component1-surface|
+-----------------------------------------------------------------------+

-------------------- Output Preprocessing ( Zone 0 ) --------------------
Screen output fields: INNER_ITER, RMS_PRESSURE, RMS_VELOCITY-X, RMS_VELOCITY-Y, RMS_PASSIVE_SCALAR
History output group(s): RMS_RES, AERO_COEFF, FLOW_COEFF
Convergence field(s): RMS_PRESSURE, RMS_VELOCITY-X, RMS_VELOCITY-Y, RMS_TKE
Warning: No (valid) fields chosen for time convergence monitoring. Time convergence monitoring inactive.
  Info: Ignoring the following volume output fields/groups:
  SOURCE, LOOKUP
Volume output fields: DENSITY, SOLUTION, PRIMITIVE, RESIDUAL, COORDINATES

------------------- Geometry Preprocessing ( Zone 0 ) -------------------
Reading the CGNS file: c6_cms_venturi.cgns.
CGNS file contains 1 database(s).
Database 1, Base:  cell dimension of 2, physical dimension of 2.
1 total zone(s).
Zone 1, Zone: 292948 total vertices, 295883 total elements.
Loading CoordinateX values into linear partitions.
Loading CoordinateY values into linear partitions.
Distributing connectivity across all ranks.
Number of connectivity sections is 6.
Section gas_inlet contains 51 elements of type Mixed.
Section air_inlet contains 150 elements of type Mixed.
Section outlet contains 157 elements of type Mixed.
Section axis contains 1721 elements of type Mixed.
Section component1-surface contains 290183 elements of type Mixed.
Section wall-component1-surface contains 3621 elements of type Mixed.
Loading surface section gas_inlet from file.
Loading surface section air_inlet from file.
Loading surface section outlet from file.
Loading surface section axis from file.
Loading volume section component1-surface from file.
Loading surface section wall-component1-surface from file.
Two dimensional problem.
292948 grid points before partitioning.
290183 volume elements before partitioning.
5 surface markers.
51 boundary elements in index 0 (Marker = gas_inlet).
150 boundary elements in index 1 (Marker = air_inlet).
157 boundary elements in index 2 (Marker = outlet).
1721 boundary elements in index 3 (Marker = axis).
3621 boundary elements in index 4 (Marker = wall-component1-surface).
Executing the partitioning functions.
Building the graph adjacency structure.
Calling ParMETIS... graph partitioning complete (13660 edge cuts).
Distributing ParMETIS coloring.
Rebalancing vertices.
Rebalancing volume element connectivity.
Rebalancing markers and surface elements.
320613 vertices including ghost points. 
303879 interior elements including halo cells. 
174 triangles.
303705 quadrilaterals.
Establishing MPI communication patterns.
Setting point connectivity.
Renumbering points (Reverse Cuthill McKee Ordering).
Recomputing point connectivity.
Setting element connectivity.
Checking the numerical grid orientation.
All volume elements are correctly orientend.
All surface elements are correctly orientend.
Identifying edges and vertices.
Setting the control volume structure.
Area of the computational grid: 0.00286002.
Searching for the closest normal neighbors to the surfaces.
Storing a mapping from global to local point index.
Compute the surface curvature.
Max K: 25766.3. Mean K: 66.0693. Standard deviation K: 1007.76.
Checking for periodicity.
Computing mesh quality statistics for the dual control volumes.
+--------------------------------------------------------------+
|           Mesh Quality Metric|        Minimum|        Maximum|
+--------------------------------------------------------------+
|    Orthogonality Angle (deg.)|        45.2115|             90|
|     CV Face Area Aspect Ratio|              1|        10.3208|
|           CV Sub-Volume Ratio|              1|        9.85984|
+--------------------------------------------------------------+
Finding max control volume width.
Communicating number of neighbors.
Wetted area = 0 m^2.
Area projection in the x-plane = 0 m, y-plane = 0 m.
Max. coordinate in the x-direction = -1e+10 m, y-direction = -1e+10 m.
Min. coordinate in the x-direction = 1e+10 m, y-direction = 1e+10 m.
Checking if Euler & Symmetry markers are straight/plane:
Boundary marker axis is a single straight.
Computing wall distances.

-------------------- Solver Preprocessing ( Zone 0 ) --------------------
Incompressible flow: rho_ref, vel_ref, temp_ref, p_ref
are set to 1.0 in order to perform a dimensional calculation.
Force coefficients computed using initial values.
The reference area for force coeffs. is 1 m^2.
The reference length for force coeffs. is 1 m.
The pressure is decomposed into thermodynamic and dynamic components.
The initial value of the dynamic pressure is 0.
Mach number: 0, computed using fluid speed of sound.
For external flows, the initial state is imposed at the far-field.
Angle of attack (deg): 0, computed using the initial velocity.
Side slip angle (deg): 0, computed using the initial velocity.
Reynolds number per meter: 66852.4, computed using initial values.
Reynolds number is a byproduct of inputs only (not used internally).
SI units only. The grid should be dimensional (meters).
Energy equation is active and coupled for variable density.

-- Models:
+------------------------------------------------------------------------------+
|          Viscosity Model|        Conductivity Model|              Fluid Model|
+------------------------------------------------------------------------------+
|               SUTHERLAND|          CONSTANT_PRANDTL|+------------------------------------------------------------------------------+
-- Fluid properties:
+------------------------------------------------------------------------------+
|                  Name|    Dim. value|    Ref. value|      Unit|Non-dim. value|
+------------------------------------------------------------------------------+
|        Ref. Viscosity|     1.716e-05|             1|   N.s/m^2|     1.716e-05|
|      Sutherland Temp.|        273.15|             1|         K|        273.15|
|     Sutherland Const.|         110.4|             1|         K|         110.4|
+------------------------------------------------------------------------------+
|        Prandtl (Lam.)|             -|             -|         -|          0.72|
|       Prandtl (Turb.)|             -|             -|         -|           0.9|
+------------------------------------------------------------------------------+
-- Initial and free-stream conditions:
+------------------------------------------------------------------------------+
|                  Name|    Dim. value|    Ref. value|      Unit|Non-dim. value|
+------------------------------------------------------------------------------+
|      Dynamic Pressure|             0|             1|        Pa|             0|
|        Total Pressure|           0.6|             1|        Pa|           0.6|
|               Density|           1.2|             1|    kg/m^3|           1.2|
|           Temperature|           300|             1|         K|           300|
|            Velocity-X|             1|             1|       m/s|             1|
|            Velocity-Y|             0|             1|       m/s|             0|
|    Velocity Magnitude|             1|             1|       m/s|             1|
+------------------------------------------------------------------------------+
|             Viscosity|     1.795e-05|             1|   N.s/m^2|     1.795e-05|
|          Conductivity|             -|             1|   W/m^2.K|             -|
|     Turb. Kin. Energy|       0.00375|             1|   m^2/s^2|       0.00375|
|     Spec. Dissipation|       25.0696|             1|       1/s|       25.0696|
+------------------------------------------------------------------------------+
|           Mach Number|             -|             -|         -|             0|
|       Reynolds Number|             -|             -|         -|       66852.4|
+------------------------------------------------------------------------------+
Initialize Jacobian structure (Navier-Stokes). MG level: 0.
Initialize Jacobian structure (passive scalar model).
Initialize Jacobian structure (SST model).

------------------- Numerics Preprocessing ( Zone 0 ) -------------------

----------------- Integration Preprocessing ( Zone 0 ) ------------------

------------------- Iteration Preprocessing ( Zone 0 ) ------------------
Euler/Navier-Stokes/RANS fluid iteration.

------------------------------ Begin Solver -----------------------------

Simulation Run using the Single-zone Driver
Initializing passive scalar (initial condition).
initialization = 1 1
+----------------------------------------------------------------+
|  Inner_Iter|      rms[P]|      rms[U]|      rms[V]|      rms[c]|
+----------------------------------------------------------------+
|           0|   -4.994576|   -4.724955|   -4.242379|   -5.697945|
|           1|   -5.055467|   -4.786078|   -4.113364|   -5.229708|
|           2|   -5.395896|   -4.652497|   -4.035262|   -5.448772|
|           3|   -5.561677|   -4.781095|   -4.133207|   -5.624321|
|           4|   -5.367991|   -4.759624|   -3.950426|   -5.657590|
|           5|   -5.344703|   -4.672068|   -3.897007|   -5.696742|
|           6|   -5.393496|   -4.594997|   -3.872240|   -5.720275|
|           7|   -5.421944|   -4.510931|   -3.845467|   -5.707364|
|           8|   -5.423878|   -4.427480|   -3.800183|   -5.687806|
|           9|   -5.430760|   -4.351556|   -3.756143|   -5.669900|
|          10|   -5.435204|   -4.284783|   -3.714509|   -5.651934|
|          11|   -5.445656|   -4.226447|   -3.682488|   -5.629138|
|          12|   -5.450192|   -4.173758|   -3.651425|   -5.607040|
|          13|   -5.459196|   -4.127247|   -3.626684|   -5.581427|
|          14|   -5.463775|   -4.085396|   -3.602478|   -5.555337|
|          15|   -5.471292|   -4.048149|   -3.583308|   -5.529924|
|          16|   -5.479979|   -4.015177|   -3.565569|   -5.504946|
|          17|   -5.491120|   -3.985584|   -3.553518|   -5.480642|
|          18|   -5.502615|   -3.958290|   -3.545929|   -5.457132|
|          19|   -5.514214|   -3.933092|   -3.541143|   -5.434127|
|          20|   -5.522255|   -3.909215|   -3.535649|   -5.411446|
|          21|   -5.532727|   -3.887692|   -3.531999|   -5.388608|
|          22|   -5.539942|   -3.865382|   -3.528229|   -5.366623|
|          23|   -5.545465|   -3.842689|   -3.525659|   -5.345368|
|          24|   -5.547994|   -3.818547|   -3.523277|   -5.323683|
|          25|   -5.549431|   -3.792640|   -3.522642|   -5.300938|
|          26|   -5.549413|   -3.764003|   -3.523273|   -5.276708|
|          27|   -5.547991|   -3.733628|   -3.525633|   -5.253210|
|          28|   -5.543889|   -3.701302|   -3.530807|   -5.233542|
|          29|   -5.541316|   -3.671691|   -3.536581|   -5.219719|
|          30|   -5.545382|   -3.648447|   -3.545469|   -5.209336|
|          31|   -5.549301|   -3.632492|   -3.554891|   -5.199736|
|          32|   -5.546432|   -3.620885|   -3.561077|   -5.188728|
|          33|   -5.528236|   -3.604449|   -3.567317|   -5.177965|
|          34|   -5.513186|   -3.582783|   -3.571891|   -5.169791|
|          35|   -5.509631|   -3.563904|   -3.575936|   -5.164395|
|          36|   -5.514630|   -3.544465|   -3.572971|   -5.152676|
|          37|   -5.507613|   -3.522570|   -3.559865|   -5.139610|
|          38|   -5.480007|   -3.484917|   -3.527996|   -5.133008|
|          39|   -5.467644|   -3.458250|   -3.491916|   -5.132406|
|          40|   -5.478343|   -3.429589|   -3.458587|   -5.131415|
|          41|   -5.481592|   -3.413116|   -3.424877|   -5.124207|
|          42|   -5.466832|   -3.394765|   -3.408236|   -5.116824|
|          43|   -5.452424|   -3.380709|   -3.397583|   -5.124062|
|          44|   -5.454508|   -3.375989|   -3.387928|   -5.132318|
|          45|   -5.480523|   -3.370224|   -3.387966|   -5.138781|
|          46|   -5.506341|   -3.384515|   -3.397430|   -5.144265|
|          47|   -5.540119|   -3.394429|   -3.411458|   -5.146126|
|          48|   -5.554626|   -3.407044|   -3.426375|   -5.145114|
|          49|   -5.550574|   -3.413963|   -3.433525|   -5.147322|
|          50|   -5.545297|   -3.414033|   -3.432220|   -5.151409|
|          51|   -5.551310|   -3.414959|   -3.430262|   -5.156465|
|          52|   -5.567506|   -3.428246|   -3.425492|   -5.160227|
|          53|   -5.583139|   -3.436787|   -3.426566|   -5.161183|
|          54|   -5.588950|   -3.435927|   -3.426404|   -5.157543|
|          55|   -5.589811|   -3.438228|   -3.434735|   -5.149397|
|          56|   -5.559290|   -3.445205|   -3.423746|   -5.140125|
|          57|   -5.539877|   -3.457157|   -3.416800|   -5.130298|
|          58|   -5.508091|   -3.465226|   -3.403133|   -5.124896|
|          59|   -5.491957|   -3.461283|   -3.397787|   -5.127771|
|          60|   -5.498440|   -3.459192|   -3.392245|   -5.138052|
|          61|   -5.523692|   -3.465609|   -3.401004|   -5.150726|
|          62|   -5.543964|   -3.477217|   -3.403427|   -5.158028|
|          63|   -5.567630|   -3.485905|   -3.410531|   -5.162390|
|          64|   -5.572650|   -3.498426|   -3.408045|   -5.164184|
|          65|   -5.581703|   -3.519950|   -3.417139|   -5.164812|
|          66|   -5.581570|   -3.539725|   -3.425518|   -5.164722|
|          67|   -5.583344|   -3.555786|   -3.426174|   -5.164846|
|          68|   -5.579091|   -3.567029|   -3.418532|   -5.164602|
|          69|   -5.584629|   -3.575205|   -3.421941|   -5.164882|
|          70|   -5.584006|   -3.579047|   -3.416925|   -5.165878|
|          71|   -5.597647|   -3.582260|   -3.421833|   -5.166809|
|          72|   -5.592236|   -3.580770|   -3.405946|   -5.167994|
|          73|   -5.607154|   -3.579629|   -3.412204|   -5.168831|
|          74|   -5.603099|   -3.577116|   -3.399394|   -5.170515|
|          75|   -5.616109|   -3.576997|   -3.402210|   -5.171816|
|          76|   -5.613874|   -3.577453|   -3.392727|   -5.173335|
|          77|   -5.627760|   -3.578459|   -3.398825|   -5.173639|
|          78|   -5.631322|   -3.579201|   -3.395419|   -5.173880|
|          79|   -5.639191|   -3.577153|   -3.396908|   -5.174453|
|          80|   -5.640901|   -3.572399|   -3.391099|   -5.174923|
|          81|   -5.645497|   -3.567471|   -3.387704|   -5.176267|
|          82|   -5.650043|   -3.561686|   -3.383912|   -5.177711|
|          83|   -5.656939|   -3.555738|   -3.383481|   -5.179386|
|          84|   -5.667159|   -3.549852|   -3.386738|   -5.181965|
|          85|   -5.675483|   -3.546531|   -3.386880|   -5.184044|
|          86|   -5.681925|   -3.545199|   -3.387881|   -5.186004|
|          87|   -5.683474|   -3.543449|   -3.386797|   -5.188013|
|          88|   -5.689288|   -3.542902|   -3.390658|   -5.189974|
|          89|   -5.693520|   -3.543131|   -3.393730|   -5.192070|
|          90|   -5.703428|   -3.541432|   -3.401697|   -5.194297|
|          91|   -5.706919|   -3.536956|   -3.400562|   -5.196505|
|          92|   -5.719822|   -3.531906|   -3.406850|   -5.198444|
|          93|   -5.723544|   -3.526108|   -3.403957|   -5.200104|
|          94|   -5.736641|   -3.521570|   -3.409980|   -5.201677|
|          95|   -5.742046|   -3.518249|   -3.412120|   -5.202479|
|          96|   -5.753325|   -3.516630|   -3.420411|   -5.203275|
|          97|   -5.763503|   -3.517151|   -3.430246|   -5.203657|
|          98|   -5.776145|   -3.518160|   -3.445100|   -5.203983|
|          99|   -5.787308|   -3.519184|   -3.459349|   -5.203159|
|         100|   -5.798179|   -3.520272|   -3.472900|   -5.204128|
|         101|   -5.808607|   -3.520349|   -3.487056|   -5.204180|
|         102|   -5.818931|   -3.518812|   -3.502004|   -5.204415|
|         103|   -5.830483|   -3.516473|   -3.515720|   -5.205239|
|         104|   -5.842433|   -3.514099|   -3.529494|   -5.206764|
|         105|   -5.853859|   -3.511843|   -3.542210|   -5.206207|
|         106|   -5.864797|   -3.510598|   -3.555178|   -5.206174|
|         107|   -5.875672|   -3.510679|   -3.569495|   -5.206988|
|         108|   -5.887071|   -3.512486|   -3.586719|   -5.210758|
|         109|   -5.899057|   -3.516073|   -3.602926|   -5.213063|
|         110|   -5.911402|   -3.521640|   -3.619519|   -5.214383|
|         111|   -5.920774|   -3.527570|   -3.634454|   -5.215088|
|         112|   -5.930361|   -3.532301|   -3.653530|   -5.215717|
|         113|   -5.935478|   -3.536399|   -3.669208|   -5.217759|
|         114|   -5.944112|   -3.540734|   -3.690356|   -5.221022|
|         115|   -5.948941|   -3.545223|   -3.709590|   -5.224160|
|         116|   -5.954896|   -3.549606|   -3.730021|   -5.227253|
|         117|   -5.958074|   -3.553743|   -3.745735|   -5.230798|
|         118|   -5.959856|   -3.557546|   -3.759568|   -5.234651|
|         119|   -5.959954|   -3.561092|   -3.768359|   -5.238912|
|         120|   -5.958266|   -3.565499|   -3.772929|   -5.244123|
|         121|   -5.951521|   -3.571459|   -3.771824|   -5.249250|
|         122|   -5.941983|   -3.578910|   -3.768551|   -5.254359|
|         123|   -5.933247|   -3.586601|   -3.764656|   -5.259449|
|         124|   -5.924595|   -3.593871|   -3.759482|   -5.264367|
|         125|   -5.912934|   -3.601102|   -3.752598|   -5.269201|
|         126|   -5.897816|   -3.608159|   -3.744794|   -5.273898|
|         127|   -5.880256|   -3.614735|   -3.735735|   -5.278412|
|         128|   -5.862154|   -3.621267|   -3.726459|   -5.282848|
|         129|   -5.840758|   -3.627536|   -3.713606|   -5.287112|
|         130|   -5.821124|   -3.633742|   -3.702814|   -5.291362|
|         131|   -5.799674|   -3.638487|   -3.688453|   -5.295616|
|         132|   -5.776624|   -3.642436|   -3.672402|   -5.299709|
|         133|   -5.756809|   -3.647102|   -3.660879|   -5.303648|
|         134|   -5.732744|   -3.651636|   -3.645276|   -5.307480|
|         135|   -5.713244|   -3.657304|   -3.635209|   -5.311026|
|         136|   -5.690195|   -3.662959|   -3.621909|   -5.314267|
|         137|   -5.671331|   -3.669659|   -3.615068|   -5.317332|
|         138|   -5.650261|   -3.675664|   -3.607411|   -5.320534|
|         139|   -5.631410|   -3.682397|   -3.603858|   -5.323699|
|         140|   -5.611565|   -3.689805|   -3.600801|   -5.326847|
|         141|   -5.594811|   -3.697818|   -3.602452|   -5.329454|
|         142|   -5.576533|   -3.704731|   -3.603611|   -5.331583|
|         143|   -5.560735|   -3.711824|   -3.608297|   -5.334072|
|         144|   -5.546965|   -3.719963|   -3.616053|   -5.337788|
|         145|   -5.533099|   -3.728375|   -3.625381|   -5.341601|
|         146|   -5.520128|   -3.736654|   -3.637420|   -5.345851|
|         147|   -5.514006|   -3.745899|   -3.644374|   -5.349309|
|         148|   -5.504505|   -3.753561|   -3.633564|   -5.352883|
|         149|   -5.497168|   -3.762165|   -3.625212|   -5.356638|
|         150|   -5.490388|   -3.772067|   -3.621400|   -5.360962|
|         151|   -5.482309|   -3.783128|   -3.622671|   -5.364672|
|         152|   -5.479934|   -3.796056|   -3.619536|   -5.367480|
|         153|   -5.475869|   -3.808502|   -3.614413|   -5.367890|
|         154|   -5.472018|   -3.820631|   -3.603628|   -5.371467|
|         155|   -5.466542|   -3.831487|   -3.593760|   -5.372702|
|         156|   -5.462204|   -3.841849|   -3.585725|   -5.375481|
|         157|   -5.456238|   -3.851468|   -3.576553|   -5.379777|
|         158|   -5.453827|   -3.860569|   -3.571499|   -5.381038|
|         159|   -5.450573|   -3.866858|   -3.566428|   -5.385086|
|         160|   -5.451250|   -3.873289|   -3.565809|   -5.389144|
|         161|   -5.446909|   -3.875603|   -3.560278|   -5.391992|
|         162|   -5.444968|   -3.873713|   -3.557433|   -5.389070|
|         163|   -5.442031|   -3.867203|   -3.555075|   -5.383791|
|         164|   -5.442987|   -3.858196|   -3.557212|   -5.377688|
|         165|   -5.440561|   -3.843344|   -3.530357|   -5.374808|
|         166|   -5.442368|   -3.827522|   -3.504732|   -5.375903|
|         167|   -5.434817|   -3.806912|   -3.476511|   -5.378393|
|         168|   -5.438772|   -3.789162|   -3.455942|   -5.379772|
|         169|   -5.439988|   -3.773491|   -3.439507|   -5.379199|
|         170|   -5.446436|   -3.758690|   -3.426943|   -5.376460|
|         171|   -5.448646|   -3.742430|   -3.412694|   -5.371545|
|         172|   -5.455922|   -3.724442|   -3.396263|   -5.364837|
|         173|   -5.460816|   -3.706071|   -3.384977|   -5.356243|
|         174|   -5.466524|   -3.690504|   -3.379893|   -5.345879|
|         175|   -5.473736|   -3.678857|   -3.381301|   -5.333887|
|         176|   -5.482527|   -3.665202|   -3.389589|   -5.319306|
|         177|   -5.488357|   -3.651955|   -3.400029|   -5.302713|
|         178|   -5.497860|   -3.642828|   -3.418651|   -5.287471|
|         179|   -5.500327|   -3.630621|   -3.434332|   -5.266190|
|         180|   -5.501363|   -3.613736|   -3.451905|   -5.253742|
|         181|   -5.496231|   -3.590512|   -3.466144|   -5.239844|
|         182|   -5.498513|   -3.566025|   -3.479782|   -5.232042|
|         183|   -5.499146|   -3.541969|   -3.485624|   -5.219127|
|         184|   -5.498892|   -3.517811|   -3.488565|   -5.205489|
|         185|   -5.496063|   -3.503031|   -3.491814|   -5.195250|
|         186|   -5.488777|   -3.495369|   -3.493077|   -5.190861|
|         187|   -5.491736|   -3.493731|   -3.505610|   -5.189443|
|         188|   -5.507078|   -3.497455|   -3.537238|   -5.191236|
|         189|   -5.528580|   -3.503798|   -3.570697|   -5.194914|
|         190|   -5.550531|   -3.511752|   -3.600308|   -5.196699|
|         191|   -5.565810|   -3.515996|   -3.622227|   -5.198185|
|         192|   -5.578091|   -3.515296|   -3.631049|   -5.198047|
|         193|   -5.584490|   -3.511614|   -3.627037|   -5.195823|
|         194|   -5.583429|   -3.506897|   -3.618349|   -5.193715|
|         195|   -5.580958|   -3.503114|   -3.607398|   -5.187728|
|         196|   -5.573879|   -3.495422|   -3.604194|   -5.184232|
|         197|   -5.571602|   -3.491533|   -3.603372|   -5.189000|
|         198|   -5.583102|   -3.496542|   -3.609300|   -5.198348|
|         199|   -5.604147|   -3.502912|   -3.624599|   -5.208186|
|         200|   -5.626081|   -3.503678|   -3.635413|   -5.215759|
|         201|   -5.638045|   -3.498310|   -3.630972|   -5.219943|
|         202|   -5.636733|   -3.490003|   -3.613349|   -5.222662|
|         203|   -5.620639|   -3.479912|   -3.588923|   -5.226099|
|         204|   -5.603060|   -3.467124|   -3.563136|   -5.229225|
|         205|   -5.600604|   -3.452735|   -3.550621|   -5.240347|
|         206|   -5.618054|   -3.451612|   -3.542953|   -5.249453|
|         207|   -5.637142|   -3.456282|   -3.547942|   -5.250959|
|         208|   -5.664330|   -3.464950|   -3.556171|   -5.261999|
|         209|   -5.681164|   -3.477253|   -3.552190|   -5.293836|
|         210|   -5.670004|   -3.477655|   -3.534899|   -5.335515|
|         211|   -5.654127|   -3.460417|   -3.510827|   -5.362573|
|         212|   -5.644116|   -3.441732|   -3.483174|   -5.374581|
|         213|   -5.643993|   -3.426620|   -3.458458|   -5.378237|
|         214|   -5.635651|   -3.420089|   -3.429434|   -5.385235|
|         215|   -5.631959|   -3.417444|   -3.411043|   -5.396205|
|         216|   -5.627759|   -3.421302|   -3.404797|   -5.406990|
|         217|   -5.627344|   -3.430722|   -3.399938|   -5.415805|
|         218|   -5.639854|   -3.439469|   -3.405979|   -5.421016|
|         219|   -5.643019|   -3.446009|   -3.410384|   -5.425243|
|         220|   -5.645141|   -3.455254|   -3.410895|   -5.431911|
|         221|   -5.642294|   -3.458264|   -3.405953|   -5.439099|
|         222|   -5.637693|   -3.467179|   -3.399580|   -5.444819|
|         223|   -5.631527|   -3.481628|   -3.393811|   -5.448844|
|         224|   -5.645390|   -3.491923|   -3.408671|   -5.452643|
|         225|   -5.660399|   -3.498374|   -3.428600|   -5.457262|
|         226|   -5.675833|   -3.505037|   -3.443479|   -5.463232|
|         227|   -5.700029|   -3.515900|   -3.462838|   -5.470698|
|         228|   -5.700545|   -3.528601|   -3.461615|   -5.478126|
|         229|   -5.712020|   -3.542180|   -3.466237|   -5.485350|
|         230|   -5.712095|   -3.554690|   -3.465279|   -5.492409|
|         231|   -5.718254|   -3.566651|   -3.465609|   -5.499563|
|         232|   -5.716257|   -3.577423|   -3.463073|   -5.506810|
|         233|   -5.716268|   -3.586832|   -3.463429|   -5.514676|
|         234|   -5.707398|   -3.596829|   -3.451339|   -5.523128|
|         235|   -5.710207|   -3.605628|   -3.449275|   -5.531527|
|         236|   -5.702210|   -3.611426|   -3.438198|   -5.539589|
|         237|   -5.703883|   -3.614950|   -3.432929|   -5.547728|
|         238|   -5.694503|   -3.615036|   -3.419361|   -5.554817|
|         239|   -5.691699|   -3.613203|   -3.410935|   -5.562233|
|         240|   -5.688465|   -3.611371|   -3.401047|   -5.569794|
|         241|   -5.687042|   -3.610912|   -3.393796|   -5.576881|
|         242|   -5.684886|   -3.609188|   -3.388021|   -5.584021|
|         243|   -5.680314|   -3.606835|   -3.379205|   -5.591236|
|         244|   -5.679624|   -3.606244|   -3.373345|   -5.598389|
|         245|   -5.678567|   -3.604204|   -3.369209|   -5.605403|
|         246|   -5.677256|   -3.600466|   -3.364549|   -5.612602|
|         247|   -5.676054|   -3.594912|   -3.359096|   -5.619443|
|         248|   -5.679435|   -3.589250|   -3.356933|   -5.626410|
|         249|   -5.678083|   -3.584062|   -3.352410|   -5.632953|
|         250|   -5.684658|   -3.580939|   -3.354141|   -5.640109|
|         251|   -5.686000|   -3.581535|   -3.352389|   -5.646762|
|         252|   -5.700881|   -3.584579|   -3.362900|   -5.652869|
|         253|   -5.704693|   -3.586194|   -3.367083|   -5.658445|
|         254|   -5.722443|   -3.588799|   -3.381165|   -5.663746|
|         255|   -5.731598|   -3.591017|   -3.390701|   -5.669030|
|         256|   -5.749273|   -3.591284|   -3.407230|   -5.674163|
|         257|   -5.758668|   -3.589501|   -3.416955|   -5.679163|
|         258|   -5.781350|   -3.586968|   -3.436121|   -5.684402|
|         259|   -5.793950|   -3.584380|   -3.447922|   -5.690043|
|         260|   -5.815868|   -3.582405|   -3.466231|   -5.695032|
|         261|   -5.829715|   -3.580524|   -3.479730|   -5.699363|
|         262|   -5.853013|   -3.579080|   -3.501072|   -5.702399|
|         263|   -5.870862|   -3.578343|   -3.519771|   -5.706254|
|         264|   -5.893906|   -3.577661|   -3.544351|   -5.709414|
|         265|   -5.910766|   -3.576440|   -3.566596|   -5.711597|
|         266|   -5.931926|   -3.575189|   -3.591373|   -5.712749|
|         267|   -5.949617|   -3.574326|   -3.614781|   -5.712401|
|         268|   -5.968519|   -3.572831|   -3.640392|   -5.712257|
|         269|   -5.988160|   -3.570877|   -3.666719|   -5.710412|
|         270|   -6.008255|   -3.568605|   -3.693501|   -5.708143|
|         271|   -6.027368|   -3.565858|   -3.719397|   -5.704945|
|         272|   -6.049799|   -3.564473|   -3.745113|   -5.701869|
|         273|   -6.069382|   -3.563872|   -3.768381|   -5.696433|
|         274|   -6.092288|   -3.564160|   -3.792319|   -5.692141|
|         275|   -6.110440|   -3.565010|   -3.813896|   -5.685165|
|         276|   -6.128178|   -3.566664|   -3.834155|   -5.681012|
|         277|   -6.140407|   -3.569245|   -3.852272|   -5.676388|
|         278|   -6.147797|   -3.572138|   -3.869725|   -5.673378|
|         279|   -6.149264|   -3.574992|   -3.882653|   -5.662910|
|         280|   -6.144897|   -3.578204|   -3.888109|   -5.664882|
|         281|   -6.132817|   -3.581880|   -3.887232|   -5.668528|
|         282|   -6.116507|   -3.585942|   -3.881378|   -5.661595|
|         283|   -6.092825|   -3.589728|   -3.868196|   -5.656675|
|         284|   -6.068482|   -3.593572|   -3.851293|   -5.656598|
|         285|   -6.042495|   -3.597793|   -3.829914|   -5.657476|
|         286|   -6.014123|   -3.602456|   -3.805051|   -5.662270|
|         287|   -5.987442|   -3.607868|   -3.781400|   -5.664897|
|         288|   -5.958726|   -3.613809|   -3.757241|   -5.665354|
|         289|   -5.928730|   -3.620008|   -3.733500|   -5.667908|
|         290|   -5.901877|   -3.627168|   -3.713522|   -5.672848|
|         291|   -5.871247|   -3.635037|   -3.691880|   -5.677641|
|         292|   -5.838996|   -3.642811|   -3.670334|   -5.682125|
|         293|   -5.821145|   -3.651549|   -3.661864|   -5.686535|
|         294|   -5.785393|   -3.658436|   -3.638948|   -5.690943|
|         295|   -5.768508|   -3.667824|   -3.632758|   -5.696253|
|         296|   -5.740667|   -3.676011|   -3.618222|   -5.701775|
|         297|   -5.718952|   -3.685235|   -3.609176|   -5.707437|
|         298|   -5.703710|   -3.695137|   -3.606590|   -5.713406|
|         299|   -5.679761|   -3.703087|   -3.597783|   -5.720002|
|         300|   -5.667086|   -3.712944|   -3.599605|   -5.726290|
|         301|   -5.643087|   -3.720009|   -3.592913|   -5.731883|
|         302|   -5.634623|   -3.730844|   -3.600823|   -5.737984|
|         303|   -5.614528|   -3.740536|   -3.599777|   -5.742769|
|         304|   -5.611658|   -3.755940|   -3.614872|   -5.745785|
|         305|   -5.594789|   -3.767411|   -3.620004|   -5.752100|
|         306|   -5.591966|   -3.782389|   -3.638485|   -5.755661|
|         307|   -5.577196|   -3.794634|   -3.648734|   -5.759397|
|         308|   -5.580069|   -3.810684|   -3.650613|   -5.763290|
|         309|   -5.565682|   -3.821677|   -3.643684|   -5.765912|
|         310|   -5.563684|   -3.836950|   -3.646310|   -5.776715|
|         311|   -5.554678|   -3.850195|   -3.640167|   -5.784444|
|         312|   -5.551421|   -3.864211|   -3.629217|   -5.794340|
|         313|   -5.546009|   -3.876813|   -3.613747|   -5.801583|
|         314|   -5.542229|   -3.891362|   -3.602270|   -5.789924|
|         315|   -5.537798|   -3.905349|   -3.591098|   -5.797588|
|         316|   -5.534190|   -3.918390|   -3.581240|   -5.806691|
|         317|   -5.529675|   -3.930186|   -3.571560|   -5.801346|
|         318|   -5.527605|   -3.941840|   -3.565061|   -5.819066|
|         319|   -5.525274|   -3.951862|   -3.559674|   -5.823720|
|         320|   -5.522012|   -3.959898|   -3.554497|   -5.836757|
|         321|   -5.519982|   -3.963562|   -3.551074|   -5.861449|
|         322|   -5.513951|   -3.958451|   -3.544413|   -5.859618|
|         323|   -5.511663|   -3.950500|   -3.541265|   -5.824626|
|         324|   -5.504279|   -3.940759|   -3.534570|   -5.774404|
|         325|   -5.504052|   -3.928298|   -3.534701|   -5.749298|
|         326|   -5.499209|   -3.908085|   -3.530829|   -5.750622|
|         327|   -5.501429|   -3.885621|   -3.532170|   -5.762724|
|         328|   -5.503229|   -3.863199|   -3.521689|   -5.779761|
|         329|   -5.506464|   -3.841807|   -3.499373|   -5.800222|
|         330|   -5.505517|   -3.823659|   -3.475534|   -5.815887|
|         331|   -5.505897|   -3.809214|   -3.457123|   -5.823418|
|         332|   -5.506663|   -3.793537|   -3.431885|   -5.822199|
|         333|   -5.509906|   -3.778195|   -3.417299|   -5.813039|
|         334|   -5.513546|   -3.764044|   -3.409070|   -5.796574|
|         335|   -5.519437|   -3.751667|   -3.407383|   -5.775594|
|         336|   -5.524911|   -3.738062|   -3.409409|   -5.748774|
|         337|   -5.532949|   -3.721235|   -3.417096|   -5.714329|
|         338|   -5.539920|   -3.701457|   -3.425961|   -5.668839|
|         339|   -5.547290|   -3.679144|   -3.436533|   -5.628794|
|         340|   -5.551402|   -3.654771|   -3.447321|   -5.575013|
|         341|   -5.552527|   -3.625057|   -3.453870|   -5.541320|
|         342|   -5.549137|   -3.589210|   -3.463075|   -5.516075|
|         343|   -5.551009|   -3.560928|   -3.470013|   -5.529122|
|         344|   -5.568592|   -3.541635|   -3.486807|   -5.529892|
|         345|   -5.583188|   -3.526915|   -3.494444|   -5.523800|
|         346|   -5.599937|   -3.517459|   -3.509040|   -5.515174|
|         347|   -5.597977|   -3.509788|   -3.521112|   -5.507941|
|         348|   -5.604312|   -3.498027|   -3.541768|   -5.493078|
|         349|   -5.613380|   -3.489353|   -3.562647|   -5.501257|
|         350|   -5.637305|   -3.485761|   -3.572448|   -5.522310|
|         351|   -5.666584|   -3.481437|   -3.580209|   -5.536347|
|         352|   -5.686096|   -3.477611|   -3.586905|   -5.546559|
|         353|   -5.701809|   -3.472440|   -3.590735|   -5.540462|
|         354|   -5.705743|   -3.470073|   -3.592936|   -5.521511|
|         355|   -5.690583|   -3.465431|   -3.590969|   -5.490232|
|         356|   -5.667281|   -3.458221|   -3.579007|   -5.438493|
|         357|   -5.640034|   -3.448286|   -3.574178|   -5.423279|
|         358|   -5.636710|   -3.446056|   -3.568519|   -5.450648|
|         359|   -5.678486|   -3.452079|   -3.578519|   -5.478322|
|         360|   -5.726721|   -3.458305|   -3.598418|   -5.494853|
|         361|   -5.760588|   -3.463875|   -3.612085|   -5.498664|
|         362|   -5.776674|   -3.468110|   -3.614750|   -5.494854|
|         363|   -5.777107|   -3.467513|   -3.608488|   -5.483559|
|         364|   -5.753850|   -3.461013|   -3.590003|   -5.460877|
|         365|   -5.720933|   -3.451516|   -3.570360|   -5.443695|
|         366|   -5.702777|   -3.445460|   -3.557199|   -5.450202|
|         367|   -5.719614|   -3.448211|   -3.545977|   -5.463329|
|         368|   -5.741285|   -3.452428|   -3.547299|   -5.471325|
|         369|   -5.759370|   -3.458643|   -3.549807|   -5.473448|
|         370|   -5.765446|   -3.459487|   -3.546002|   -5.469944|
|         371|   -5.762352|   -3.457511|   -3.535491|   -5.463654|
|         372|   -5.753229|   -3.453103|   -3.516600|   -5.456651|
|         373|   -5.739329|   -3.445373|   -3.505337|   -5.450367|
|         374|   -5.729797|   -3.444133|   -3.500754|   -5.445126|
|         375|   -5.719419|   -3.447272|   -3.492047|   -5.439890|
|         376|   -5.708535|   -3.446893|   -3.480869|   -5.434664|
|         377|   -5.688457|   -3.450141|   -3.469359|   -5.430002|
|         378|   -5.662744|   -3.456020|   -3.454170|   -5.419941|
|         379|   -5.634479|   -3.465008|   -3.444026|   -5.408812|
|         380|   -5.607351|   -3.475287|   -3.433609|   -5.409455|
|         381|   -5.597764|   -3.482320|   -3.431914|   -5.419545|
|         382|   -5.605176|   -3.490544|   -3.433774|   -5.434323|
|         383|   -5.625978|   -3.499242|   -3.446563|   -5.447398|
|         384|   -5.624609|   -3.512159|   -3.441955|   -5.456943|
|         385|   -5.631765|   -3.525062|   -3.442916|   -5.464432|
|         386|   -5.627284|   -3.541185|   -3.438081|   -5.471231|
|         387|   -5.631705|   -3.560200|   -3.445708|   -5.478385|
|         388|   -5.630282|   -3.578120|   -3.443759|   -5.485455|
|         389|   -5.635397|   -3.595981|   -3.445146|   -5.492907|
|         390|   -5.638667|   -3.611897|   -3.443107|   -5.500562|
|         391|   -5.636910|   -3.625878|   -3.436669|   -5.508896|
|         392|   -5.648799|   -3.637566|   -3.440550|   -5.517371|
|         393|   -5.643693|   -3.643899|   -3.432037|   -5.525269|
|         394|   -5.648937|   -3.647817|   -3.433904|   -5.532895|
|         395|   -5.646396|   -3.651755|   -3.427134|   -5.540598|
|         396|   -5.656219|   -3.655965|   -3.434144|   -5.548368|
|         397|   -5.654569|   -3.660835|   -3.429825|   -5.555962|
|         398|   -5.666835|   -3.668679|   -3.434118|   -5.563558|
|         399|   -5.666567|   -3.675090|   -3.429937|   -5.571437|
|         400|   -5.678449|   -3.679815|   -3.433276|   -5.579390|
|         401|   -5.672175|   -3.679700|   -3.421531|   -5.587010|
|         402|   -5.680773|   -3.676108|   -3.423150|   -5.594833|
|         403|   -5.674987|   -3.671364|   -3.412751|   -5.603122|
|         404|   -5.683432|   -3.669046|   -3.410357|   -5.611787|
|         405|   -5.682610|   -3.667298|   -3.402134|   -5.620972|
|         406|   -5.691001|   -3.665045|   -3.401499|   -5.630458|
|         407|   -5.688173|   -3.664085|   -3.392040|   -5.639741|
|         408|   -5.701311|   -3.663185|   -3.396787|   -5.648809|
|         409|   -5.696233|   -3.658365|   -3.388498|   -5.657939|
|         410|   -5.706813|   -3.651652|   -3.391385|   -5.667140|
|         411|   -5.703153|   -3.641443|   -3.383020|   -5.676324|
|         412|   -5.713598|   -3.631135|   -3.385618|   -5.685231|
|         413|   -5.710246|   -3.621141|   -3.378400|   -5.694268|
|         414|   -5.727456|   -3.616663|   -3.386713|   -5.703445|
|         415|   -5.727193|   -3.614300|   -3.385282|   -5.712767|
|         416|   -5.748799|   -3.612746|   -3.401078|   -5.722292|
|         417|   -5.754622|   -3.612074|   -3.405761|   -5.731524|
|         418|   -5.774380|   -3.612885|   -3.421776|   -5.740461|
|         419|   -5.785930|   -3.611697|   -3.433153|   -5.748884|
|         420|   -5.802813|   -3.609008|   -3.448248|   -5.757244|
|         421|   -5.819306|   -3.604956|   -3.462168|   -5.765467|
|         422|   -5.836862|   -3.600984|   -3.476503|   -5.773352|
|         423|   -5.855185|   -3.597626|   -3.491340|   -5.780976|
|         424|   -5.874796|   -3.595080|   -3.508472|   -5.788348|
|         425|   -5.895084|   -3.593931|   -3.526676|   -5.795056|
|         426|   -5.915964|   -3.594587|   -3.546659|   -5.800643|
|         427|   -5.937367|   -3.595596|   -3.569574|   -5.804336|
|         428|   -5.957818|   -3.596217|   -3.593097|   -5.806578|
|         429|   -5.981592|   -3.597289|   -3.618060|   -5.809553|
|         430|   -6.004490|   -3.598788|   -3.643800|   -5.813141|
|         431|   -6.026074|   -3.599336|   -3.669580|   -5.815732|
|         432|   -6.047698|   -3.598860|   -3.694922|   -5.814236|
|         433|   -6.066126|   -3.597383|   -3.717636|   -5.810939|
|         434|   -6.084795|   -3.595215|   -3.739768|   -5.806701|
|         435|   -6.102146|   -3.593042|   -3.759931|   -5.799885|
|         436|   -6.118214|   -3.590688|   -3.779303|   -5.791242|
|         437|   -6.132708|   -3.588535|   -3.799680|   -5.783815|
|         438|   -6.144273|   -3.586562|   -3.819505|   -5.774609|
|         439|   -6.153637|   -3.585391|   -3.838659|   -5.761745|
|         440|   -6.157204|   -3.585257|   -3.856147|   -5.751758|
|         441|   -6.157046|   -3.585852|   -3.871816|   -5.744968|
|         442|   -6.153055|   -3.586815|   -3.883231|   -5.735407|
|         443|   -6.144815|   -3.588485|   -3.889138|   -5.728029|
|         444|   -6.130898|   -3.590722|   -3.889493|   -5.714689|
|         445|   -6.111539|   -3.592947|   -3.885066|   -5.720895|
|         446|   -6.090086|   -3.595136|   -3.876234|   -5.719378|
|         447|   -6.062650|   -3.596937|   -3.860751|   -5.707621|
|         448|   -6.037681|   -3.598846|   -3.845259|   -5.710431|
|         449|   -6.005665|   -3.600613|   -3.822642|   -5.705240|
|         450|   -5.981494|   -3.603121|   -3.806044|   -5.707023|
|         451|   -5.948466|   -3.605697|   -3.782544|   -5.708804|
|         452|   -5.921258|   -3.608975|   -3.764291|   -5.709700|
|         453|   -5.887280|   -3.612798|   -3.740132|   -5.711307|
|         454|   -5.860921|   -3.618081|   -3.723727|   -5.713004|
|         455|   -5.829060|   -3.623507|   -3.703160|   -5.712088|
|         456|   -5.802848|   -3.629663|   -3.687701|   -5.709980|
|         457|   -5.771094|   -3.635700|   -3.667442|   -5.708167|
|         458|   -5.746550|   -3.642829|   -3.654875|   -5.706648|
|         459|   -5.721163|   -3.650137|   -3.642539|   -5.704998|
|         460|   -5.699680|   -3.658179|   -3.634591|   -5.702887|
|         461|   -5.671414|   -3.665016|   -3.620523|   -5.700241|
|         462|   -5.660037|   -3.674237|   -3.622752|   -5.698838|
|         463|   -5.633808|   -3.680747|   -3.612806|   -5.697544|
|         464|   -5.617105|   -3.688427|   -3.612684|   -5.697070|
|         465|   -5.597961|   -3.695415|   -3.611756|   -5.696684|
|         466|   -5.584374|   -3.704393|   -3.617486|   -5.694609|
|         467|   -5.568555|   -3.714262|   -3.623615|   -5.693088|
|         468|   -5.558905|   -3.726995|   -3.636815|   -5.692797|
|         469|   -5.549148|   -3.740030|   -3.633357|   -5.693529|
|         470|   -5.543716|   -3.753737|   -3.624677|   -5.694091|
|         471|   -5.533262|   -3.766835|   -3.618019|   -5.698640|
|         472|   -5.527489|   -3.781940|   -3.612238|   -5.702636|
|         473|   -5.520974|   -3.797465|   -3.605275|   -5.710936|
|         474|   -5.514121|   -3.813104|   -3.595137|   -5.711821|
|         475|   -5.513131|   -3.830060|   -3.582093|   -5.708750|
|         476|   -5.505566|   -3.846883|   -3.566846|   -5.710312|
|         477|   -5.503223|   -3.865413|   -3.557418|   -5.719358|
|         478|   -5.496796|   -3.881879|   -3.545097|   -5.709857|
|         479|   -5.495905|   -3.898269|   -3.538789|   -5.722879|
|         480|   -5.491051|   -3.912471|   -3.530265|   -5.725754|
|         481|   -5.489532|   -3.926722|   -3.525347|   -5.741246|
|         482|   -5.486643|   -3.939792|   -3.520438|   -5.762842|
|         483|   -5.485206|   -3.948747|   -3.517914|   -5.775191|
|         484|   -5.484274|   -3.950708|   -3.516531|   -5.791491|
|         485|   -5.479261|   -3.948863|   -3.511753|   -5.788827|
|         486|   -5.476959|   -3.945410|   -3.509291|   -5.765711|
|         487|   -5.475301|   -3.935797|   -3.507974|   -5.741597|
|         488|   -5.477218|   -3.919844|   -3.511254|   -5.726367|
|         489|   -5.475772|   -3.897818|   -3.512105|   -5.728815|
|         490|   -5.481823|   -3.874191|   -3.517091|   -5.747615|
|         491|   -5.484663|   -3.848615|   -3.490614|   -5.772222|
|         492|   -5.485725|   -3.826672|   -3.469860|   -5.794936|
|         493|   -5.485943|   -3.804316|   -3.449444|   -5.812582|
|         494|   -5.489629|   -3.783796|   -3.436716|   -5.821172|
|         495|   -5.492965|   -3.764549|   -3.413785|   -5.820182|
|         496|   -5.498760|   -3.747540|   -3.401211|   -5.809568|
|         497|   -5.505142|   -3.729594|   -3.395061|   -5.791777|
|         498|   -5.515203|   -3.710981|   -3.396947|   -5.768381|
|         499|   -5.524971|   -3.692639|   -3.402776|   -5.738504|
|         500|   -5.536079|   -3.675523|   -3.413366|   -5.700103|
|         501|   -5.542689|   -3.659195|   -3.422699|   -5.654498|
|         502|   -5.554081|   -3.641616|   -3.436525|   -5.618065|
|         503|   -5.557069|   -3.617632|   -3.448899|   -5.558106|
|         504|   -5.562712|   -3.594115|   -3.464534|   -5.544317|
|         505|   -5.563577|   -3.570163|   -3.477792|   -5.524344|
|         506|   -5.572031|   -3.546962|   -3.489074|   -5.529047|
|         507|   -5.584410|   -3.525877|   -3.501985|   -5.520497|
|         508|   -5.599054|   -3.507932|   -3.514282|   -5.506901|
|         509|   -5.599605|   -3.494619|   -3.517858|   -5.499711|
|         510|   -5.604102|   -3.486926|   -3.531018|   -5.482067|
|         511|   -5.611473|   -3.481555|   -3.542658|   -5.483491|
|         512|   -5.629263|   -3.477407|   -3.562868|   -5.495197|
|         513|   -5.652301|   -3.479967|   -3.574909|   -5.503486|
|         514|   -5.681359|   -3.483578|   -3.599427|   -5.507086|
|         515|   -5.695693|   -3.482619|   -3.613955|   -5.508984|
|         516|   -5.704871|   -3.479782|   -3.619393|   -5.498170|
|         517|   -5.695950|   -3.476359|   -3.617207|   -5.480840|
|         518|   -5.679880|   -3.469772|   -3.611876|   -5.450550|
|         519|   -5.654540|   -3.463893|   -3.602532|   -5.415274|
|         520|   -5.631253|   -3.457392|   -3.597985|   -5.414769|
|         521|   -5.640936|   -3.455318|   -3.593553|   -5.441454|
|         522|   -5.677602|   -3.464076|   -3.604394|   -5.465807|
|         523|   -5.713838|   -3.473142|   -3.622419|   -5.482338|
|         524|   -5.734431|   -3.476793|   -3.629984|   -5.485318|
|         525|   -5.741977|   -3.478180|   -3.623749|   -5.477584|
|         526|   -5.728520|   -3.472257|   -3.607185|   -5.457354|
|         527|   -5.700780|   -3.462486|   -3.581179|   -5.429423|
|         528|   -5.677616|   -3.454354|   -3.561124|   -5.420172|
|         529|   -5.674349|   -3.446217|   -3.546125|   -5.433744|
|         530|   -5.697746|   -3.448368|   -3.542144|   -5.447169|
|         531|   -5.718060|   -3.456998|   -3.543658|   -5.454985|
|         532|   -5.735854|   -3.460999|   -3.544045|   -5.456933|
|         533|   -5.739346|   -3.459148|   -3.536675|   -5.454113|
|         534|   -5.734633|   -3.451642|   -3.520282|   -5.449589|
|         535|   -5.724041|   -3.443026|   -3.504439|   -5.444244|
|         536|   -5.709939|   -3.441707|   -3.485365|   -5.438718|
|         537|   -5.694746|   -3.434636|   -3.467873|   -5.435648|
|         538|   -5.684983|   -3.426300|   -3.457032|   -5.437081|
|         539|   -5.670446|   -3.429497|   -3.443445|   -5.441069|
|         540|   -5.658534|   -3.438660|   -3.434895|   -5.444654|
|         541|   -5.651706|   -3.448536|   -3.430690|   -5.448188|
|         542|   -5.643306|   -3.457387|   -3.428111|   -5.450645|
|         543|   -5.635891|   -3.468872|   -3.426710|   -5.449324|
|         544|   -5.630274|   -3.484567|   -3.422553|   -5.448766|
|         545|   -5.630262|   -3.498333|   -3.423130|   -5.454571|
|         546|   -5.624862|   -3.499631|   -3.421369|   -5.464611|
|         547|   -5.625328|   -3.503286|   -3.424222|   -5.476643|
|         548|   -5.629565|   -3.515268|   -3.427048|   -5.487418|
|         549|   -5.632590|   -3.530208|   -3.429299|   -5.496389|
|         550|   -5.641680|   -3.547474|   -3.437980|   -5.504417|
|         551|   -5.647660|   -3.565590|   -3.439868|   -5.512308|
|         552|   -5.658066|   -3.583934|   -3.446565|   -5.519908|
|         553|   -5.653300|   -3.600018|   -3.438370|   -5.527525|
|         554|   -5.661686|   -3.613043|   -3.441078|   -5.534849|
|         555|   -5.659276|   -3.622216|   -3.436468|   -5.541907|
|         556|   -5.663590|   -3.629473|   -3.435215|   -5.549020|
|         557|   -5.663607|   -3.634846|   -3.433900|   -5.556282|
|         558|   -5.666336|   -3.640153|   -3.434992|   -5.563749|
|         559|   -5.669956|   -3.648537|   -3.431429|   -5.571263|
|         560|   -5.678629|   -3.657135|   -3.434541|   -5.578958|
|         561|   -5.681194|   -3.663408|   -3.430867|   -5.586464|
|         562|   -5.682934|   -3.665532|   -3.425815|   -5.593570|
|         563|   -5.683514|   -3.663496|   -3.421339|   -5.600789|
|         564|   -5.682301|   -3.659738|   -3.415365|   -5.608398|
|         565|   -5.687433|   -3.657616|   -3.411233|   -5.616332|
|         566|   -5.684534|   -3.656646|   -3.402019|   -5.624859|
|         567|   -5.687594|   -3.654361|   -3.397123|   -5.633883|
|         568|   -5.691163|   -3.653744|   -3.392758|   -5.642763|
|         569|   -5.689004|   -3.652460|   -3.385770|   -5.651427|
|         570|   -5.693607|   -3.648842|   -3.384193|   -5.660132|
|         571|   -5.692499|   -3.642185|   -3.378242|   -5.668962|
|         572|   -5.696642|   -3.633220|   -3.375630|   -5.677731|
|         573|   -5.694807|   -3.622736|   -3.368960|   -5.686505|
|         574|   -5.702437|   -3.613509|   -3.369734|   -5.695122|
|         575|   -5.704928|   -3.608522|   -3.367186|   -5.703589|
|         576|   -5.714555|   -3.606711|   -3.372116|   -5.712587|
|         577|   -5.723732|   -3.604677|   -3.378563|   -5.721768|
|         578|   -5.736002|   -3.604266|   -3.387150|   -5.730835|
|         579|   -5.750211|   -3.605274|   -3.398806|   -5.739820|
|         580|   -5.764834|   -3.604827|   -3.412223|   -5.748394|
|         581|   -5.778365|   -3.602803|   -3.424600|   -5.756871|
|         582|   -5.797197|   -3.599738|   -3.440414|   -5.765189|
|         583|   -5.812691|   -3.596555|   -3.453763|   -5.773114|
|         584|   -5.832055|   -3.593841|   -3.470071|   -5.780718|
|         585|   -5.849866|   -3.591717|   -3.486528|   -5.787891|
|         586|   -5.868675|   -3.590742|   -3.504259|   -5.794654|
|         587|   -5.888409|   -3.591295|   -3.523561|   -5.800373|
|         588|   -5.908572|   -3.591951|   -3.545733|   -5.804653|
|         589|   -5.928996|   -3.591871|   -3.569142|   -5.807496|
|         590|   -5.948664|   -3.591941|   -3.591673|   -5.809899|
|         591|   -5.969294|   -3.592222|   -3.615802|   -5.814860|
|         592|   -5.990046|   -3.591829|   -3.641232|   -5.816896|
|         593|   -6.011194|   -3.590414|   -3.667395|   -5.817187|
|         594|   -6.033031|   -3.588399|   -3.693643|   -5.814318|
|         595|   -6.053407|   -3.585997|   -3.718364|   -5.810615|
|         596|   -6.073717|   -3.583695|   -3.742155|   -5.806135|
|         597|   -6.091322|   -3.581266|   -3.764126|   -5.796297|
|         598|   -6.109656|   -3.579077|   -3.787739|   -5.788693|
|         599|   -6.124478|   -3.577034|   -3.810788|   -5.780638|
|         600|   -6.138214|   -3.575624|   -3.834279|   -5.768682|
|         601|   -6.146607|   -3.575205|   -3.855661|   -5.761167|
|         602|   -6.150351|   -3.574986|   -3.876654|   -5.752083|
|         603|   -6.150350|   -3.575250|   -3.892589|   -5.735814|
|         604|   -6.144117|   -3.576157|   -3.900985|   -5.736740|
|         605|   -6.133846|   -3.577923|   -3.904194|   -5.724441|
|         606|   -6.117108|   -3.580086|   -3.900165|   -5.715062|
|         607|   -6.095293|   -3.582151|   -3.890041|   -5.723360|
|         608|   -6.071821|   -3.584402|   -3.874573|   -5.717303|
|         609|   -6.044927|   -3.586846|   -3.853920|   -5.710386|
|         610|   -6.017055|   -3.589614|   -3.831296|   -5.710683|
|         611|   -5.988933|   -3.592798|   -3.808511|   -5.705961|
|         612|   -5.958451|   -3.596187|   -3.784675|   -5.708011|
|         613|   -5.928192|   -3.599881|   -3.761722|   -5.709927|
|         614|   -5.895737|   -3.604199|   -3.737481|   -5.711456|
|         615|   -5.868724|   -3.609830|   -3.719331|   -5.712065|
|         616|   -5.831781|   -3.614978|   -3.692921|   -5.715425|
|         617|   -5.811603|   -3.621686|   -3.681953|   -5.716989|
|         618|   -5.771084|   -3.626972|   -3.652801|   -5.718351|
|         619|   -5.756519|   -3.635478|   -3.648474|   -5.719699|
|         620|   -5.719111|   -3.641850|   -3.624389|   -5.721309|
|         621|   -5.704570|   -3.651409|   -3.621128|   -5.722420|
|         622|   -5.678834|   -3.659493|   -3.608952|   -5.722967|
|         623|   -5.659793|   -3.668567|   -3.603661|   -5.723346|
|         624|   -5.637226|   -3.676675|   -3.595934|   -5.724826|
|         625|   -5.622585|   -3.685696|   -3.596844|   -5.726565|
|         626|   -5.600700|   -3.693026|   -3.593126|   -5.729803|
|         627|   -5.588154|   -3.703478|   -3.599149|   -5.732320|
|         628|   -5.572001|   -3.714496|   -3.603518|   -5.732371|
|         629|   -5.562665|   -3.728152|   -3.614862|   -5.736462|
|         630|   -5.552988|   -3.742601|   -3.627654|   -5.739405|
|         631|   -5.547465|   -3.757471|   -3.621018|   -5.743636|
|         632|   -5.538965|   -3.771105|   -3.615114|   -5.749891|
|         633|   -5.533443|   -3.786685|   -3.612865|   -5.760060|
|         634|   -5.527330|   -3.802629|   -3.607153|   -5.767055|
|         635|   -5.521400|   -3.819000|   -3.605085|   -5.778231|
|         636|   -5.517063|   -3.835685|   -3.597703|   -5.773005|
|         637|   -5.516010|   -3.854108|   -3.585148|   -5.771520|
|         638|   -5.512428|   -3.872061|   -3.574210|   -5.775157|
|         639|   -5.508616|   -3.888818|   -3.563980|   -5.782030|
|         640|   -5.505203|   -3.904612|   -3.554731|   -5.775927|
|         641|   -5.502351|   -3.919708|   -3.547257|   -5.795829|
|         642|   -5.498818|   -3.933529|   -3.540327|   -5.786802|
|         643|   -5.496613|   -3.947224|   -3.535484|   -5.829078|
|         644|   -5.494360|   -3.957643|   -3.531827|   -5.843311|
|         645|   -5.494551|   -3.961160|   -3.531230|   -5.854616|
|         646|   -5.489110|   -3.958636|   -3.526049|   -5.855405|
|         647|   -5.487782|   -3.955864|   -3.524692|   -5.819313|
|         648|   -5.483370|   -3.947221|   -3.520958|   -5.777520|
|         649|   -5.485034|   -3.932361|   -3.523445|   -5.751853|
|         650|   -5.481813|   -3.909897|   -3.522146|   -5.744676|
|         651|   -5.484350|   -3.885740|   -3.525029|   -5.757483|
|         652|   -5.486153|   -3.859940|   -3.496914|   -5.778281|
|         653|   -5.486820|   -3.838563|   -3.475012|   -5.795170|
|         654|   -5.486146|   -3.817584|   -3.451999|   -5.807078|
|         655|   -5.487991|   -3.798088|   -3.432121|   -5.810130|
|         656|   -5.490448|   -3.780100|   -3.409175|   -5.803987|
|         657|   -5.495458|   -3.764234|   -3.396557|   -5.790210|
|         658|   -5.498935|   -3.747705|   -3.388081|   -5.770779|
|         659|   -5.505958|   -3.730709|   -3.387358|   -5.747863|
|         660|   -5.513508|   -3.712755|   -3.391339|   -5.720747|
|         661|   -5.521607|   -3.695091|   -3.399289|   -5.688184|
|         662|   -5.529261|   -3.677039|   -3.407951|   -5.648244|
|         663|   -5.538757|   -3.659027|   -3.420775|   -5.613541|
|         664|   -5.544785|   -3.634801|   -3.434363|   -5.563055|
|         665|   -5.550648|   -3.606936|   -3.445707|   -5.538183|
|         666|   -5.551330|   -3.579462|   -3.459051|   -5.509474|
|         667|   -5.558445|   -3.553296|   -3.471207|   -5.518473|
|         668|   -5.569736|   -3.531413|   -3.483243|   -5.514268|
|         669|   -5.589216|   -3.514432|   -3.501465|   -5.508113|
|         670|   -5.596182|   -3.504303|   -3.509579|   -5.502069|
|         671|   -5.602243|   -3.495180|   -3.522031|   -5.494103|
|         672|   -5.609902|   -3.487593|   -3.538530|   -5.487073|
|         673|   -5.620483|   -3.479735|   -3.555628|   -5.491184|
|         674|   -5.645188|   -3.476263|   -3.567971|   -5.503908|
|         675|   -5.669322|   -3.477766|   -3.581969|   -5.509076|
|         676|   -5.691082|   -3.477675|   -3.600645|   -5.511339|
|         677|   -5.698701|   -3.474900|   -3.607907|   -5.503278|
|         678|   -5.701306|   -3.472547|   -3.611561|   -5.485469|
|         679|   -5.679022|   -3.466596|   -3.607443|   -5.462162|
|         680|   -5.659702|   -3.458949|   -3.599183|   -5.421044|
|         681|   -5.634483|   -3.452575|   -3.592875|   -5.407241|
|         682|   -5.630982|   -3.447491|   -3.587983|   -5.429857|
|         683|   -5.663803|   -3.452585|   -3.593153|   -5.456640|
|         684|   -5.701661|   -3.462209|   -3.612426|   -5.476616|
|         685|   -5.727931|   -3.466527|   -3.626281|   -5.482721|
|         686|   -5.741171|   -3.467346|   -3.624985|   -5.477402|
|         687|   -5.735592|   -3.463916|   -3.612471|   -5.460768|
|         688|   -5.706249|   -3.454509|   -3.589161|   -5.431862|
|         689|   -5.678706|   -3.446080|   -3.565139|   -5.414846|
|         690|   -5.668692|   -3.437894|   -3.547821|   -5.423252|
|         691|   -5.688621|   -3.437823|   -3.539371|   -5.438022|
|         692|   -5.712982|   -3.446946|   -3.540190|   -5.446967|
|         693|   -5.731137|   -3.453802|   -3.542851|   -5.450522|
|         694|   -5.740311|   -3.452481|   -3.539158|   -5.448371|
|         695|   -5.737857|   -3.446275|   -3.524165|   -5.443420|
|         696|   -5.729283|   -3.436179|   -3.508307|   -5.437009|
|         697|   -5.716955|   -3.432213|   -3.490801|   -5.430478|
|         698|   -5.702706|   -3.427108|   -3.473647|   -5.425350|
|         699|   -5.692917|   -3.417549|   -3.461952|   -5.424147|
|         700|   -5.680874|   -3.419340|   -3.450141|   -5.425980|
|         701|   -5.668336|   -3.430217|   -3.441295|   -5.428105|
|         702|   -5.657083|   -3.441227|   -3.435686|   -5.430008|
|         703|   -5.649936|   -3.449832|   -3.435074|   -5.432504|
|         704|   -5.638649|   -3.459778|   -3.430450|   -5.432573|
|         705|   -5.632436|   -3.473895|   -3.427652|   -5.431381|
|         706|   -5.630828|   -3.489784|   -3.426004|   -5.434332|
|         707|   -5.624755|   -3.493761|   -3.424452|   -5.442130|
|         708|   -5.623096|   -3.496311|   -3.427322|   -5.453099|
|         709|   -5.617042|   -3.506273|   -3.422748|   -5.463417|
|         710|   -5.627259|   -3.521308|   -3.429487|   -5.472808|
|         711|   -5.629842|   -3.537717|   -3.434831|   -5.481587|
|         712|   -5.641388|   -3.555941|   -3.440420|   -5.489513|
|         713|   -5.635316|   -3.572881|   -3.432504|   -5.497284|
|         714|   -5.652784|   -3.590215|   -3.442638|   -5.505319|
|         715|   -5.637561|   -3.604747|   -3.427250|   -5.513490|
|         716|   -5.651069|   -3.616650|   -3.434726|   -5.521272|
|         717|   -5.645199|   -3.625495|   -3.424864|   -5.528591|
|         718|   -5.653064|   -3.633505|   -3.429736|   -5.535971|
|         719|   -5.650685|   -3.639531|   -3.429347|   -5.543510|
|         720|   -5.655957|   -3.647881|   -3.426087|   -5.551116|
|         721|   -5.658217|   -3.655987|   -3.423511|   -5.558873|
|         722|   -5.666212|   -3.662196|   -3.423483|   -5.566615|
|         723|   -5.669882|   -3.666185|   -3.420538|   -5.574566|
|         724|   -5.675214|   -3.666094|   -3.419889|   -5.582507|
|         725|   -5.673134|   -3.662673|   -3.416122|   -5.590090|
|         726|   -5.678788|   -3.660956|   -3.412183|   -5.597603|
|         727|   -5.673808|   -3.660811|   -3.400478|   -5.605746|
|         728|   -5.680743|   -3.659578|   -3.398687|   -5.614467|
|         729|   -5.678494|   -3.659329|   -3.389506|   -5.623515|
|         730|   -5.687479|   -3.659749|   -3.390619|   -5.632650|
|         731|   -5.684667|   -3.656594|   -3.383517|   -5.641505|
|         732|   -5.690340|   -3.650888|   -3.382132|   -5.650271|
|         733|   -5.685716|   -3.641615|   -3.371899|   -5.659145|
|         734|   -5.697044|   -3.631439|   -3.374492|   -5.668119|
|         735|   -5.692479|   -3.620683|   -3.366119|   -5.677098|
|         736|   -5.703664|   -3.615114|   -3.369024|   -5.685925|
|         737|   -5.704485|   -3.611654|   -3.366685|   -5.695077|
|         738|   -5.717528|   -3.608304|   -3.374613|   -5.704386|
|         739|   -5.723512|   -3.606572|   -3.377500|   -5.713660|
|         740|   -5.739211|   -3.606776|   -3.389390|   -5.722751|
|         741|   -5.748751|   -3.605207|   -3.398149|   -5.731711|
|         742|   -5.766356|   -3.602333|   -3.412682|   -5.740407|
|         743|   -5.778106|   -3.598093|   -3.422678|   -5.749011|
|         744|   -5.796764|   -3.594032|   -3.437164|   -5.757364|
|         745|   -5.810549|   -3.590267|   -3.448898|   -5.765385|
|         746|   -5.830951|   -3.587511|   -3.466472|   -5.772996|
|         747|   -5.848375|   -3.586529|   -3.482575|   -5.780203|
|         748|   -5.868812|   -3.587238|   -3.502061|   -5.786888|
|         749|   -5.888022|   -3.587657|   -3.522814|   -5.792889|
|         750|   -5.909366|   -3.587612|   -3.545438|   -5.797396|
|         751|   -5.929860|   -3.587984|   -3.567445|   -5.800728|
|         752|   -5.950809|   -3.588383|   -3.591319|   -5.803472|
|         753|   -5.971956|   -3.587768|   -3.616092|   -5.808725|
|         754|   -5.993136|   -3.586254|   -3.640984|   -5.810896|
|         755|   -6.016615|   -3.584301|   -3.666828|   -5.810521|
|         756|   -6.036882|   -3.582269|   -3.690008|   -5.808180|
|         757|   -6.060253|   -3.580698|   -3.714258|   -5.804682|
|         758|   -6.078208|   -3.579157|   -3.736048|   -5.799288|
|         759|   -6.099352|   -3.577704|   -3.761151|   -5.790486|
|         760|   -6.116026|   -3.576437|   -3.784447|   -5.782733|
|         761|   -6.132331|   -3.575815|   -3.809652|   -5.775067|
|         762|   -6.142509|   -3.575509|   -3.834033|   -5.760830|
|         763|   -6.150459|   -3.575236|   -3.857980|   -5.754921|
|         764|   -6.153164|   -3.574943|   -3.877261|   -5.747620|
|         765|   -6.151476|   -3.575430|   -3.891034|   -5.732293|
|         766|   -6.143080|   -3.576546|   -3.898532|   -5.732940|
|         767|   -6.130741|   -3.577805|   -3.900618|   -5.721221|
|         768|   -6.113819|   -3.579323|   -3.895047|   -5.713104|
|         769|   -6.092353|   -3.580944|   -3.882431|   -5.721303|
|         770|   -6.068979|   -3.582721|   -3.865661|   -5.715741|
|         771|   -6.041893|   -3.584690|   -3.844615|   -5.710131|
|         772|   -6.014089|   -3.586904|   -3.823286|   -5.710204|
|         773|   -5.988004|   -3.589655|   -3.804316|   -5.705683|
|         774|   -5.954156|   -3.592536|   -3.778592|   -5.707937|
|         775|   -5.926753|   -3.596624|   -3.759251|   -5.709369|
|         776|   -5.896899|   -3.601449|   -3.738945|   -5.711217|
|         777|   -5.865379|   -3.606494|   -3.717379|   -5.712915|
|         778|   -5.835759|   -3.611959|   -3.696946|   -5.716246|
|         779|   -5.803601|   -3.617757|   -3.674661|   -5.717918|
|         780|   -5.777096|   -3.624607|   -3.658825|   -5.719218|
|         781|   -5.749691|   -3.631864|   -3.643354|   -5.720548|
|         782|   -5.721954|   -3.639296|   -3.627890|   -5.722101|
|         783|   -5.699473|   -3.647470|   -3.617525|   -5.723213|
|         784|   -5.678356|   -3.656053|   -3.609582|   -5.723601|
|         785|   -5.658766|   -3.664889|   -3.604508|   -5.723203|
|         786|   -5.636763|   -3.672888|   -3.598426|   -5.723543|
|         787|   -5.618621|   -3.681285|   -3.596411|   -5.724756|
|         788|   -5.601010|   -3.690008|   -3.596829|   -5.726655|
|         789|   -5.582397|   -3.698798|   -3.597883|   -5.728285|
|         790|   -5.572638|   -3.710230|   -3.608153|   -5.727687|
|         791|   -5.557540|   -3.721951|   -3.615350|   -5.730539|
|         792|   -5.549943|   -3.736763|   -3.629989|   -5.733108|
|         793|   -5.540623|   -3.750275|   -3.618693|   -5.736873|
|         794|   -5.536411|   -3.764658|   -3.617948|   -5.742748|
|         795|   -5.525706|   -3.778478|   -3.609280|   -5.752399|
|         796|   -5.521614|   -3.794241|   -3.607723|   -5.758625|
|         797|   -5.514399|   -3.809699|   -3.607325|   -5.767934|
|         798|   -5.513215|   -3.827309|   -3.590326|   -5.761886|
|         799|   -5.507263|   -3.843804|   -3.574820|   -5.761418|
|         800|   -5.505772|   -3.861119|   -3.565387|   -5.766731|
|         801|   -5.497687|   -3.876370|   -3.550885|   -5.770122|
|         802|   -5.498784|   -3.893624|   -3.545383|   -5.770530|
|         803|   -5.491832|   -3.908429|   -3.534422|   -5.787294|
|         804|   -5.490369|   -3.924755|   -3.528892|   -5.782681|
|         805|   -5.485655|   -3.938358|   -3.521596|   -5.818967|
|         806|   -5.485550|   -3.947193|   -3.519480|   -5.830495|
|         807|   -5.483407|   -3.950088|   -3.516485|   -5.848985|
|         808|   -5.477892|   -3.949887|   -3.510943|   -5.841438|
|         809|   -5.476908|   -3.946666|   -3.509469|   -5.802673|
|         810|   -5.474075|   -3.936172|   -3.507414|   -5.763460|
|         811|   -5.473927|   -3.919497|   -3.508612|   -5.744925|
|         812|   -5.472100|   -3.897357|   -3.507988|   -5.746827|
|         813|   -5.474983|   -3.874212|   -3.510857|   -5.759275|
|         814|   -5.475677|   -3.850025|   -3.478972|   -5.777230|
|         815|   -5.478265|   -3.830098|   -3.457775|   -5.794813|
|         816|   -5.473822|   -3.808690|   -3.434640|   -5.805482|
|         817|   -5.479359|   -3.790404|   -3.411205|   -5.807874|
|         818|   -5.478720|   -3.773299|   -3.389064|   -5.800507|
|         819|   -5.483713|   -3.756603|   -3.378319|   -5.785515|
|         820|   -5.489002|   -3.739112|   -3.373189|   -5.765886|
|         821|   -5.496574|   -3.721196|   -3.374899|   -5.742712|
|         822|   -5.503153|   -3.703928|   -3.379564|   -5.715270|
|         823|   -5.513786|   -3.687373|   -3.389610|   -5.682048|
|         824|   -5.521674|   -3.670503|   -3.399963|   -5.642608|
|         825|   -5.531597|   -3.649531|   -3.414198|   -5.608171|
|         826|   -5.538065|   -3.622770|   -3.426806|   -5.555888|
|         827|   -5.546000|   -3.596199|   -3.440777|   -5.535628|
|         828|   -5.547063|   -3.568475|   -3.453981|   -5.510751|
|         829|   -5.555144|   -3.541516|   -3.465879|   -5.517141|
|         830|   -5.567452|   -3.518764|   -3.480144|   -5.511444|
|         831|   -5.583548|   -3.501845|   -3.493096|   -5.509846|
|         832|   -5.590401|   -3.491512|   -3.500454|   -5.506666|
|         833|   -5.603065|   -3.484853|   -3.516383|   -5.496804|
|         834|   -5.612461|   -3.480280|   -3.532766|   -5.491129|
|         835|   -5.627810|   -3.475609|   -3.556867|   -5.493660|
|         836|   -5.647791|   -3.476259|   -3.572658|   -5.501297|
|         837|   -5.676805|   -3.478983|   -3.596062|   -5.502163|
|         838|   -5.690102|   -3.477679|   -3.610643|   -5.501592|
|         839|   -5.700799|   -3.474691|   -3.619107|   -5.491958|
|         840|   -5.696028|   -3.471807|   -3.619465|   -5.474867|
|         841|   -5.682270|   -3.466896|   -3.619645|   -5.455644|
|         842|   -5.664520|   -3.462053|   -3.612331|   -5.423346|
|         843|   -5.647008|   -3.456650|   -3.608969|   -5.409654|
|         844|   -5.641794|   -3.450961|   -3.602632|   -5.425384|
|         845|   -5.670366|   -3.458016|   -3.608984|   -5.447442|
|         846|   -5.704505|   -3.465931|   -3.627252|   -5.463047|
|         847|   -5.725903|   -3.467808|   -3.638277|   -5.466974|
|         848|   -5.732333|   -3.466903|   -3.633671|   -5.458534|
|         849|   -5.715731|   -3.460722|   -3.617098|   -5.438395|
|         850|   -5.683049|   -3.451145|   -3.589509|   -5.407738|
|         851|   -5.659338|   -3.442890|   -3.562557|   -5.395951|
|         852|   -5.652218|   -3.431865|   -3.547008|   -5.409068|
|         853|   -5.676545|   -3.434579|   -3.538275|   -5.424707|
|         854|   -5.698582|   -3.445274|   -3.539724|   -5.434049|
|         855|   -5.718940|   -3.450080|   -3.542165|   -5.438132|
|         856|   -5.727636|   -3.447720|   -3.536169|   -5.436222|
|         857|   -5.723596|   -3.439714|   -3.519723|   -5.431428|
|         858|   -5.714736|   -3.430291|   -3.504529|   -5.424938|
|         859|   -5.702291|   -3.426908|   -3.483595|   -5.417527|
|         860|   -5.687769|   -3.416320|   -3.462002|   -5.411722|
|         861|   -5.674189|   -3.406688|   -3.446828|   -5.411202|
|         862|   -5.660688|   -3.409998|   -3.433725|   -5.414649|
|         863|   -5.651536|   -3.421160|   -3.426070|   -5.418560|
|         864|   -5.645430|   -3.432669|   -3.424591|   -5.421030|
|         865|   -5.641568|   -3.441114|   -3.424103|   -5.424081|
|         866|   -5.632734|   -3.449675|   -3.424599|   -5.427729|
|         867|   -5.628906|   -3.465984|   -3.419960|   -5.429194|
|         868|   -5.624669|   -3.479357|   -3.415466|   -5.430078|
|         869|   -5.616584|   -3.483154|   -3.413707|   -5.434128|
|         870|   -5.606362|   -3.490437|   -3.409002|   -5.442398|
|         871|   -5.606482|   -3.501636|   -3.410211|   -5.452345|
|         872|   -5.616755|   -3.513920|   -3.421202|   -5.461746|
|         873|   -5.620678|   -3.528737|   -3.423881|   -5.470704|
|         874|   -5.631574|   -3.545399|   -3.428962|   -5.479072|
|         875|   -5.628490|   -3.561795|   -3.422870|   -5.487255|
|         876|   -5.640781|   -3.578259|   -3.430103|   -5.495401|
|         877|   -5.620607|   -3.591634|   -3.410817|   -5.503618|
|         878|   -5.646629|   -3.605095|   -3.426398|   -5.511346|
|         879|   -5.627718|   -3.614701|   -3.409296|   -5.518810|
|         880|   -5.654117|   -3.623740|   -3.431650|   -5.526281|
|         881|   -5.633916|   -3.631858|   -3.410841|   -5.533861|
|         882|   -5.655586|   -3.641675|   -3.422836|   -5.541725|
|         883|   -5.647537|   -3.648136|   -3.409203|   -5.549735|
|         884|   -5.664190|   -3.653146|   -3.416793|   -5.557864|
|         885|   -5.659020|   -3.654497|   -3.407630|   -5.566107|
|         886|   -5.669608|   -3.653224|   -3.412979|   -5.574298|
|         887|   -5.668589|   -3.651728|   -3.406051|   -5.582108|
|         888|   -5.671725|   -3.652285|   -3.400616|   -5.590046|
|         889|   -5.670217|   -3.651337|   -3.391824|   -5.598585|
|         890|   -5.675900|   -3.651519|   -3.388576|   -5.607536|
|         891|   -5.676635|   -3.652144|   -3.383069|   -5.616705|
|         892|   -5.681181|   -3.650574|   -3.381344|   -5.625971|
|         893|   -5.680286|   -3.645689|   -3.374986|   -5.635131|
|         894|   -5.686544|   -3.637731|   -3.373346|   -5.644106|
|         895|   -5.684753|   -3.627002|   -3.365713|   -5.653165|
|         896|   -5.689935|   -3.616585|   -3.363506|   -5.662407|
|         897|   -5.691753|   -3.609981|   -3.359045|   -5.671625|
|         898|   -5.697434|   -3.606354|   -3.359473|   -5.680803|
|         899|   -5.700473|   -3.602040|   -3.359132|   -5.690255|
|         900|   -5.712010|   -3.599694|   -3.364984|   -5.699604|
|         901|   -5.719693|   -3.598877|   -3.370189|   -5.708713|
|         902|   -5.731137|   -3.597175|   -3.379543|   -5.717737|
|         903|   -5.745207|   -3.593975|   -3.390861|   -5.726605|
|         904|   -5.759840|   -3.589478|   -3.402620|   -5.735226|
|         905|   -5.775425|   -3.584942|   -3.414689|   -5.743759|
|         906|   -5.791357|   -3.580986|   -3.427605|   -5.751948|
|         907|   -5.809123|   -3.578022|   -3.442925|   -5.759733|
|         908|   -5.827117|   -3.577097|   -3.459128|   -5.767052|
|         909|   -5.847092|   -3.577977|   -3.478108|   -5.773799|
|         910|   -5.865974|   -3.578680|   -3.498620|   -5.779350|
|         911|   -5.886641|   -3.578727|   -3.520278|   -5.783884|
|         912|   -5.906619|   -3.579193|   -3.541599|   -5.786755|
|         913|   -5.927466|   -3.579450|   -3.564994|   -5.791617|
|         914|   -5.946715|   -3.578608|   -3.588430|   -5.795145|
|         915|   -5.968655|   -3.576757|   -3.613500|   -5.796993|
|         916|   -5.987878|   -3.574313|   -3.636871|   -5.797656|
|         917|   -6.012101|   -3.572047|   -3.662556|   -5.794556|
|         918|   -6.032046|   -3.570283|   -3.685338|   -5.789217|
|         919|   -6.055826|   -3.568955|   -3.711179|   -5.785227|
|         920|   -6.074437|   -3.567676|   -3.735105|   -5.776604|
|         921|   -6.095889|   -3.566940|   -3.761825|   -5.768316|
|         922|   -6.111436|   -3.566675|   -3.786137|   -5.761801|
|         923|   -6.127026|   -3.566501|   -3.814140|   -5.750260|
|         924|   -6.135898|   -3.566039|   -3.839621|   -5.742312|
|         925|   -6.142845|   -3.565624|   -3.862501|   -5.736864|
|         926|   -6.143691|   -3.565665|   -3.879918|   -5.725214|
|         927|   -6.139464|   -3.566061|   -3.893146|   -5.724018|
|         928|   -6.129485|   -3.566547|   -3.899218|   -5.711512|
|         929|   -6.115057|   -3.567338|   -3.897284|   -5.705689|
|         930|   -6.095511|   -3.568237|   -3.887571|   -5.714188|
|         931|   -6.075202|   -3.569755|   -3.872831|   -5.707802|
|         932|   -6.048583|   -3.571502|   -3.851316|   -5.702629|
|         933|   -6.023382|   -3.573738|   -3.831139|   -5.702844|
|         934|   -5.994493|   -3.576194|   -3.808341|   -5.698818|
|         935|   -5.968855|   -3.579552|   -3.788883|   -5.701267|
|         936|   -5.936980|   -3.583588|   -3.764345|   -5.703140|
|         937|   -5.906053|   -3.588291|   -3.742086|   -5.704725|
|         938|   -5.879360|   -3.593519|   -3.724230|   -5.705679|
|         939|   -5.847745|   -3.598786|   -3.701804|   -5.709842|
|         940|   -5.816032|   -3.604506|   -3.679482|   -5.712697|
|         941|   -5.789403|   -3.611217|   -3.662890|   -5.714785|
|         942|   -5.757693|   -3.617778|   -3.642666|   -5.717097|
|         943|   -5.732402|   -3.625149|   -3.628964|   -5.719099|
|         944|   -5.707235|   -3.632735|   -3.616202|   -5.721093|
|         945|   -5.685083|   -3.641108|   -3.606989|   -5.722717|
|         946|   -5.662732|   -3.649641|   -3.598424|   -5.723637|
|         947|   -5.641153|   -3.657960|   -3.591684|   -5.724064|
|         948|   -5.622172|   -3.666350|   -3.588309|   -5.725566|
|         949|   -5.602936|   -3.674836|   -3.586403|   -5.727569|
|         950|   -5.584973|   -3.683603|   -3.587419|   -5.730217|
|         951|   -5.571687|   -3.693744|   -3.594277|   -5.731806|
|         952|   -5.555232|   -3.704415|   -3.599417|   -5.732269|
|         953|   -5.547001|   -3.718554|   -3.613234|   -5.737624|
|         954|   -5.536348|   -3.732466|   -3.618683|   -5.740443|
|         955|   -5.529039|   -3.746664|   -3.614816|   -5.744407|
|         956|   -5.524033|   -3.761310|   -3.609832|   -5.753543|
|         957|   -5.514634|   -3.775436|   -3.603459|   -5.761286|
|         958|   -5.509341|   -3.790727|   -3.598785|   -5.771985|
|         959|   -5.505837|   -3.806521|   -3.579173|   -5.771917|
|         960|   -5.499658|   -3.822471|   -3.562905|   -5.768792|
|         961|   -5.496500|   -3.839489|   -3.551380|   -5.770363|
|         962|   -5.490544|   -3.855687|   -3.538272|   -5.781318|
|         963|   -5.487253|   -3.872646|   -3.528255|   -5.768943|
|         964|   -5.484216|   -3.889473|   -3.519823|   -5.790013|
|         965|   -5.479991|   -3.905852|   -3.511638|   -5.791048|
|         966|   -5.478015|   -3.921894|   -3.506266|   -5.805632|
|         967|   -5.475242|   -3.933966|   -3.501594|   -5.829442|
|         968|   -5.475538|   -3.939796|   -3.500548|   -5.842553|
|         969|   -5.469181|   -3.939423|   -3.494147|   -5.849107|
|         970|   -5.467712|   -3.938032|   -3.492284|   -5.816674|
|         971|   -5.463403|   -3.930722|   -3.488660|   -5.771079|
|         972|   -5.464495|   -3.917171|   -3.490822|   -5.744699|
|         973|   -5.462093|   -3.895887|   -3.490262|   -5.733631|
|         974|   -5.464399|   -3.872203|   -3.492970|   -5.741985|
|         975|   -5.465760|   -3.848344|   -3.478973|   -5.759713|
[...]
|        2804|   -4.258814|   -0.855340|   -0.766101|   -4.532918|
|        2805|   -4.275100|   -0.843740|   -0.790248|   -4.548217|
|        2806|   -4.292049|   -0.833989|   -0.815708|   -4.564530|
|        2807|   -4.308766|   -0.825656|   -0.841532|   -4.582008|
|        2808|   -4.325675|   -0.818622|   -0.868402|   -4.600744|
|        2809|   -4.342217|   -0.812752|   -0.895643|   -4.621029|
|        2810|   -4.359873|   -0.808142|   -0.924793|   -4.642678|
|        2811|   -4.378390|   -0.804473|   -0.956802|   -4.666065|
|        2812|   -4.396912|   -0.801882|   -0.989823|   -4.691006|
|        2813|   -4.416504|   -0.800710|   -1.025103|   -4.717531|
|        2814|   -4.437920|   -0.800963|   -1.063849|   -4.745570|
|        2815|   -4.460219|   -0.802523|   -1.105457|   -4.774559|
|        2816|   -4.484372|   -0.805483|   -1.151322|   -4.804759|
|        2817|   -4.509589|   -0.809430|   -1.200075|   -4.834879|
|        2818|   -4.533693|   -0.814243|   -1.247250|   -4.864708|
|        2819|   -4.560162|   -0.819669|   -1.302254|   -4.891771|
|        2820|   -4.577826|   -0.825459|   -1.349440|   -4.915521|
|        2821|   -4.594893|   -0.831321|   -1.397082|   -4.932484|
|        2822|   -4.597332|   -0.836930|   -1.392772|   -4.940987|
|        2823|   -4.591091|   -0.842444|   -1.366848|   -4.939518|
|        2824|   -4.572864|   -0.847868|   -1.318593|   -4.926899|
|        2825|   -4.544764|   -0.853334|   -1.262097|   -4.904569|
|        2826|   -4.508981|   -0.858937|   -1.204565|   -4.876246|
|        2827|   -4.475549|   -0.864874|   -1.161508|   -4.843716|
|        2828|   -4.434306|   -0.871346|   -1.115052|   -4.810609|
|        2829|   -4.397964|   -0.878531|   -1.080981|   -4.777745|
|        2830|   -4.361389|   -0.886518|   -1.051064|   -4.747315|
|        2831|   -4.329980|   -0.895077|   -1.030929|   -4.718706|
|        2832|   -4.297551|   -0.904160|   -1.012495|   -4.692538|
|        2833|   -4.269430|   -0.913567|   -0.997768|   -4.667943|
|        2834|   -4.241646|   -0.923568|   -0.986156|   -4.644737|
|        2835|   -4.214970|   -0.934700|   -0.978007|   -4.624461|
|        2836|   -4.192254|   -0.947654|   -0.975736|   -4.605950|
|        2837|   -4.169926|   -0.962485|   -0.976221|   -4.591228|
|        2838|   -4.151655|   -0.978564|   -0.982232|   -4.578065|
|        2839|   -4.134064|   -0.996114|   -0.990612|   -4.565333|
|        2840|   -4.123074|   -1.012704|   -0.954226|   -4.554320|
|        2841|   -4.103482|   -1.029170|   -0.902546|   -4.546123|
|        2842|   -4.084179|   -1.044656|   -0.863866|   -4.541061|
|        2843|   -4.071240|   -1.056920|   -0.835805|   -4.537865|
|        2844|   -4.056531|   -1.063324|   -0.812791|   -4.535207|
|        2845|   -4.040558|   -1.062700|   -0.787502|   -4.533702|
|        2846|   -4.029532|   -1.057884|   -0.763420|   -4.533087|
|        2847|   -4.023442|   -1.049196|   -0.740060|   -4.533077|
|        2848|   -4.019798|   -1.032697|   -0.732949|   -4.532288|
|        2849|   -4.015340|   -1.024863|   -0.733095|   -4.531201|
|        2850|   -4.015686|   -1.026380|   -0.739456|   -4.528238|
|        2851|   -4.015003|   -1.027417|   -0.731964|   -4.524972|
|        2852|   -4.010239|   -1.032205|   -0.722607|   -4.520658|
|        2853|   -4.004459|   -1.035730|   -0.714104|   -4.516122|
|        2854|   -4.007802|   -1.051218|   -0.714097|   -4.510734|
|        2855|   -4.012262|   -1.060813|   -0.716179|   -4.505141|
|        2856|   -4.010687|   -1.055907|   -0.691032|   -4.499223|
|        2857|   -4.000760|   -1.048090|   -0.646604|   -4.493360|
|        2858|   -3.997101|   -1.040987|   -0.615933|   -4.486425|
|        2859|   -3.994818|   -1.041166|   -0.590398|   -4.478937|
|        2860|   -3.987509|   -1.044188|   -0.562892|   -4.471391|
|        2861|   -3.983573|   -1.047212|   -0.540225|   -4.463298|
|        2862|   -3.980437|   -1.044307|   -0.519954|   -4.455280|
|        2863|   -3.982922|   -1.037575|   -0.507094|   -4.448443|
|        2864|   -3.983692|   -1.026319|   -0.495233|   -4.443103|
|        2865|   -3.989628|   -1.012411|   -0.489240|   -4.438907|
|        2866|   -3.994268|   -0.994657|   -0.483124|   -4.436651|
|        2867|   -4.000474|   -0.976226|   -0.479540|   -4.436704|
|        2868|   -4.007334|   -0.957132|   -0.477172|   -4.438756|
|        2869|   -4.014444|   -0.938054|   -0.475607|   -4.442980|
|        2870|   -4.023736|   -0.920357|   -0.476685|   -4.448969|
|        2871|   -4.030293|   -0.903276|   -0.476337|   -4.457014|
|        2872|   -4.043002|   -0.887219|   -0.481878|   -4.466290|
|        2873|   -4.050752|   -0.870870|   -0.483981|   -4.476631|
|        2874|   -4.063542|   -0.855627|   -0.491586|   -4.488208|
|        2875|   -4.072735|   -0.840022|   -0.496960|   -4.500674|
|        2876|   -4.085897|   -0.824894|   -0.506619|   -4.514371|
|        2877|   -4.097304|   -0.809879|   -0.515424|   -4.528551|
|        2878|   -4.111593|   -0.795424|   -0.527504|   -4.543861|
|        2879|   -4.124794|   -0.781287|   -0.539543|   -4.560234|
|        2880|   -4.139850|   -0.768016|   -0.554177|   -4.578539|
|        2881|   -4.155439|   -0.755448|   -0.570235|   -4.598014|
|        2882|   -4.171521|   -0.743642|   -0.587754|   -4.619456|
|        2883|   -4.190673|   -0.732707|   -0.609247|   -4.642336|
|        2884|   -4.210232|   -0.722701|   -0.632517|   -4.667040|
|        2885|   -4.233348|   -0.713764|   -0.660859|   -4.693391|
|        2886|   -4.257775|   -0.705783|   -0.692552|   -4.721095|
|        2887|   -4.283790|   -0.698784|   -0.728388|   -4.751322|
|        2888|   -4.311811|   -0.692890|   -0.769111|   -4.782018|
|        2889|   -4.339443|   -0.687654|   -0.813127|   -4.813208|
|        2890|   -4.369111|   -0.683270|   -0.863887|   -4.842818|
|        2891|   -4.397420|   -0.679489|   -0.919252|   -4.870452|
|        2892|   -4.425978|   -0.676363|   -0.982950|   -4.891516|
|        2893|   -4.450925|   -0.673530|   -1.052493|   -4.904058|
|        2894|   -4.474936|   -0.671490|   -1.133523|   -4.905332|
|        2895|   -4.494207|   -0.669969|   -1.225895|   -4.893381|
|        2896|   -4.507765|   -0.668729|   -1.330539|   -4.870124|
|        2897|   -4.515355|   -0.668123|   -1.435942|   -4.835778|
|        2898|   -4.516225|   -0.667931|   -1.515483|   -4.793946|
|        2899|   -4.509474|   -0.667965|   -1.515891|   -4.748347|
|        2900|   -4.496665|   -0.668322|   -1.441781|   -4.700590|
|        2901|   -4.476911|   -0.668834|   -1.341688|   -4.653242|
|        2902|   -4.453754|   -0.669455|   -1.252005|   -4.606604|
|        2903|   -4.425507|   -0.670064|   -1.171869|   -4.561862|
|        2904|   -4.397050|   -0.670802|   -1.107447|   -4.518905|
|        2905|   -4.366585|   -0.671625|   -1.051171|   -4.477684|
|        2906|   -4.338805|   -0.672778|   -1.007612|   -4.436834|
|        2907|   -4.307382|   -0.674041|   -0.965282|   -4.396323|
|        2908|   -4.281632|   -0.675604|   -0.935550|   -4.355007|
|        2909|   -4.253680|   -0.677177|   -0.907211|   -4.313222|
|        2910|   -4.229659|   -0.679258|   -0.887683|   -4.271359|
|        2911|   -4.204936|   -0.681625|   -0.871034|   -4.230076|
|        2912|   -4.181682|   -0.683938|   -0.859425|   -4.190215|
|        2913|   -4.159316|   -0.686138|   -0.851832|   -4.152281|
|        2914|   -4.138208|   -0.688049|   -0.848673|   -4.116722|
|        2915|   -4.124303|   -0.691348|   -0.824557|   -4.083827|
|        2916|   -4.110233|   -0.695731|   -0.777442|   -4.054444|
|        2917|   -4.093141|   -0.700025|   -0.734081|   -4.028082|
|        2918|   -4.074506|   -0.704753|   -0.691982|   -4.005329|
|        2919|   -4.060867|   -0.711565|   -0.657666|   -3.986325|
|        2920|   -4.045067|   -0.719483|   -0.624200|   -3.970756|
|        2921|   -4.027686|   -0.728078|   -0.591175|   -3.958813|
|        2922|   -4.011230|   -0.736963|   -0.560316|   -3.950729|
|        2923|   -3.994402|   -0.746035|   -0.530494|   -3.947609|
|        2924|   -3.982990|   -0.755680|   -0.507751|   -3.947458|
|        2925|   -3.971562|   -0.765770|   -0.486202|   -3.949956|
|        2926|   -3.961085|   -0.776740|   -0.466936|   -3.955224|
|        2927|   -3.951417|   -0.786884|   -0.449107|   -3.962487|
|        2928|   -3.941773|   -0.794979|   -0.431309|   -3.971196|
|        2929|   -3.933259|   -0.804274|   -0.415047|   -3.981225|
|        2930|   -3.925495|   -0.813562|   -0.400516|   -3.992375|
|        2931|   -3.920611|   -0.823657|   -0.389737|   -4.004631|
|        2932|   -3.916588|   -0.834615|   -0.380602|   -4.017747|
|        2933|   -3.914532|   -0.845585|   -0.374626|   -4.031923|
|        2934|   -3.915007|   -0.856553|   -0.371930|   -4.046740|
|        2935|   -3.917286|   -0.865977|   -0.371863|   -4.062062|
|        2936|   -3.920262|   -0.873998|   -0.373053|   -4.078088|
|        2937|   -3.928075|   -0.877621|   -0.347067|   -4.095133|
|        2938|   -3.926583|   -0.874291|   -0.324722|   -4.112878|
|        2939|   -3.934254|   -0.868573|   -0.316145|   -4.131068|
|        2940|   -3.938399|   -0.858631|   -0.307040|   -4.149568|
|        2941|   -3.946485|   -0.846596|   -0.305032|   -4.167937|
|        2942|   -3.956452|   -0.831729|   -0.308028|   -4.186064|
|        2943|   -3.971093|   -0.813872|   -0.318054|   -4.203836|
|        2944|   -3.984257|   -0.792760|   -0.329318|   -4.221254|
|        2945|   -3.999692|   -0.770507|   -0.344591|   -4.238502|
|        2946|   -4.015051|   -0.747305|   -0.361385|   -4.255620|
|        2947|   -4.032525|   -0.724147|   -0.381659|   -4.272569|
|        2948|   -4.047989|   -0.701764|   -0.401270|   -4.289334|
|        2949|   -4.065104|   -0.681239|   -0.423190|   -4.306152|
|        2950|   -4.081310|   -0.662434|   -0.444892|   -4.322923|
|        2951|   -4.097905|   -0.645912|   -0.467427|   -4.339792|
|        2952|   -4.114873|   -0.631825|   -0.490632|   -4.356853|
|        2953|   -4.131376|   -0.619597|   -0.513799|   -4.374392|
|        2954|   -4.148705|   -0.609423|   -0.538108|   -4.392491|
|        2955|   -4.165845|   -0.600910|   -0.562584|   -4.411096|
|        2956|   -4.183888|   -0.593705|   -0.588672|   -4.430356|
|        2957|   -4.202058|   -0.587666|   -0.615603|   -4.450369|
|        2958|   -4.220865|   -0.582483|   -0.644171|   -4.471281|
|        2959|   -4.239498|   -0.577862|   -0.673904|   -4.493385|
|        2960|   -4.259168|   -0.574229|   -0.705616|   -4.516556|
|        2961|   -4.279636|   -0.571142|   -0.740511|   -4.540755|
|        2962|   -4.300708|   -0.569202|   -0.777417|   -4.566304|
|        2963|   -4.323262|   -0.568314|   -0.818288|   -4.592924|
|        2964|   -4.347027|   -0.568579|   -0.864066|   -4.620605|
|        2965|   -4.371262|   -0.570188|   -0.913749|   -4.649041|
|        2966|   -4.396290|   -0.572619|   -0.967707|   -4.678057|
|        2967|   -4.420925|   -0.575930|   -1.023283|   -4.707171|
|        2968|   -4.444967|   -0.580034|   -1.079451|   -4.735332|
|        2969|   -4.465649|   -0.584582|   -1.128680|   -4.761113|
|        2970|   -4.479828|   -0.589754|   -1.172336|   -4.783059|
|        2971|   -4.488349|   -0.595237|   -1.195454|   -4.798638|
|        2972|   -4.484516|   -0.600586|   -1.168918|   -4.805761|
|        2973|   -4.468898|   -0.606015|   -1.116699|   -4.803651|
|        2974|   -4.446652|   -0.611608|   -1.062203|   -4.790359|
|        2975|   -4.411397|   -0.617531|   -0.996358|   -4.769747|
|        2976|   -4.384208|   -0.623845|   -0.956699|   -4.741257|
|        2977|   -4.342701|   -0.630604|   -0.904445|   -4.710147|
|        2978|   -4.308588|   -0.637805|   -0.868988|   -4.678246|
|        2979|   -4.274196|   -0.645545|   -0.838270|   -4.646625|
|        2980|   -4.239606|   -0.653913|   -0.811676|   -4.617216|
|        2981|   -4.210789|   -0.662733|   -0.794601|   -4.589358|
|        2982|   -4.179389|   -0.671749|   -0.774630|   -4.563078|
|        2983|   -4.152080|   -0.681113|   -0.760891|   -4.537648|
|        2984|   -4.125800|   -0.691062|   -0.750295|   -4.513499|
|        2985|   -4.101045|   -0.702144|   -0.743345|   -4.490400|
|        2986|   -4.077610|   -0.715019|   -0.739651|   -4.469177|
|        2987|   -4.056767|   -0.729595|   -0.739960|   -4.450416|
|        2988|   -4.037507|   -0.745641|   -0.743270|   -4.432767|
|        2989|   -4.019626|   -0.763477|   -0.749778|   -4.415204|
|        2990|   -4.008879|   -0.780244|   -0.709879|   -4.398383|
|        2991|   -3.987104|   -0.796832|   -0.660497|   -4.384584|
|        2992|   -3.969633|   -0.811696|   -0.626137|   -4.373906|
|        2993|   -3.957219|   -0.823091|   -0.600993|   -4.364826|
|        2994|   -3.942492|   -0.829351|   -0.578861|   -4.358399|
|        2995|   -3.926465|   -0.829736|   -0.556782|   -4.354123|
|        2996|   -3.914760|   -0.826343|   -0.534938|   -4.350201|
|        2997|   -3.909279|   -0.819825|   -0.515584|   -4.345586|
|        2998|   -3.904819|   -0.807655|   -0.506528|   -4.340433|
|        2999|   -3.901201|   -0.794203|   -0.506315|   -4.334385|
|        3000|   -3.899967|   -0.795150|   -0.513746|   -4.326976|
|        3001|   -3.900699|   -0.791565|   -0.512276|   -4.318177|
|        3002|   -3.897150|   -0.794893|   -0.505420|   -4.308856|
|        3003|   -3.892209|   -0.793925|   -0.497948|   -4.298933|
|        3004|   -3.892507|   -0.800262|   -0.495214|   -4.288295|
|        3005|   -3.899538|   -0.817041|   -0.498960|   -4.277323|
|        3006|   -3.902559|   -0.823446|   -0.491304|   -4.266100|
|        3007|   -3.899804|   -0.822029|   -0.448532|   -4.254769|
|        3008|   -3.887800|   -0.814792|   -0.408573|   -4.243360|
|        3009|   -3.889876|   -0.810317|   -0.386748|   -4.232522|
|        3010|   -3.882862|   -0.808048|   -0.359229|   -4.223620|
|        3011|   -3.878244|   -0.809910|   -0.335835|   -4.217437|
|        3012|   -3.874970|   -0.810158|   -0.314934|   -4.213349|
|        3013|   -3.875608|   -0.805979|   -0.299839|   -4.212140|
|        3014|   -3.877220|   -0.797663|   -0.287582|   -4.215005|
|        3015|   -3.883958|   -0.786996|   -0.281621|   -4.219904|
|        3016|   -3.888632|   -0.772315|   -0.275079|   -4.226875|
|        3017|   -3.897632|   -0.755980|   -0.273243|   -4.235058|
|        3018|   -3.903007|   -0.737936|   -0.269328|   -4.244859|
|        3019|   -3.914239|   -0.720319|   -0.271003|   -4.255182|
|        3020|   -3.921787|   -0.702722|   -0.270053|   -4.266182|
|        3021|   -3.932107|   -0.686895|   -0.272668|   -4.278273|
|        3022|   -3.943296|   -0.671792|   -0.276786|   -4.291108|
|        3023|   -3.952485|   -0.656755|   -0.280232|   -4.305071|
|        3024|   -3.967145|   -0.642934|   -0.288951|   -4.319802|
|        3025|   -3.977386|   -0.628717|   -0.294901|   -4.335332|
|        3026|   -3.992281|   -0.615200|   -0.305994|   -4.351560|
|        3027|   -4.002763|   -0.601010|   -0.313920|   -4.368558|
|        3028|   -4.018448|   -0.587351|   -0.327273|   -4.386192|
|        3029|   -4.031615|   -0.573755|   -0.339259|   -4.404549|
|        3030|   -4.045562|   -0.560502|   -0.352996|   -4.423922|
|        3031|   -4.061086|   -0.547909|   -0.368935|   -4.444135|
|        3032|   -4.074586|   -0.535634|   -0.384072|   -4.465383|
|        3033|   -4.091670|   -0.524198|   -0.403572|   -4.487540|
|        3034|   -4.105136|   -0.513093|   -0.420796|   -4.510608|
|        3035|   -4.126188|   -0.503182|   -0.446598|   -4.534478|
|        3036|   -4.142977|   -0.493821|   -0.469867|   -4.558944|
|        3037|   -4.166878|   -0.485690|   -0.502114|   -4.583959|
|        3038|   -4.186648|   -0.478361|   -0.532141|   -4.608839|
|        3039|   -4.212369|   -0.472205|   -0.570752|   -4.633427|
|        3040|   -4.235151|   -0.466856|   -0.608773|   -4.656399|
|        3041|   -4.262934|   -0.462426|   -0.656748|   -4.676910|
|        3042|   -4.288972|   -0.458573|   -0.708058|   -4.693068|
|        3043|   -4.317227|   -0.455289|   -0.770449|   -4.703392|
|        3044|   -4.342745|   -0.452474|   -0.839077|   -4.706018|
|        3045|   -4.365670|   -0.450039|   -0.917180|   -4.700460|
|        3046|   -4.384024|   -0.448000|   -0.999204|   -4.685548|
|        3047|   -4.395436|   -0.446154|   -1.079133|   -4.663100|
|        3048|   -4.399823|   -0.444502|   -1.130938|   -4.632779|
|        3049|   -4.394710|   -0.442936|   -1.133710|   -4.597645|
|        3050|   -4.383160|   -0.441432|   -1.089716|   -4.558330|
|        3051|   -4.362353|   -0.439836|   -1.016312|   -4.516916|
|        3052|   -4.337987|   -0.438012|   -0.944379|   -4.474462|
|        3053|   -4.307212|   -0.435827|   -0.873742|   -4.432240|
|        3054|   -4.277400|   -0.433415|   -0.816173|   -4.389926|
|        3055|   -4.243694|   -0.430925|   -0.761059|   -4.348278|
|        3056|   -4.213357|   -0.428500|   -0.717407|   -4.306056|
|        3057|   -4.178349|   -0.425079|   -0.674684|   -4.263756|
|        3058|   -4.150729|   -0.420748|   -0.633733|   -4.220967|
|        3059|   -4.127005|   -0.416503|   -0.572947|   -4.178435|
|        3060|   -4.100734|   -0.411777|   -0.517870|   -4.136367|
|        3061|   -4.079334|   -0.407387|   -0.470992|   -4.095116|
|        3062|   -4.057592|   -0.404717|   -0.426282|   -4.055603|
|        3063|   -4.036177|   -0.402690|   -0.384652|   -4.018518|
|        3064|   -4.015400|   -0.400378|   -0.346073|   -3.984098|
|        3065|   -3.996062|   -0.397947|   -0.310475|   -3.952588|
|        3066|   -3.978566|   -0.396136|   -0.277990|   -3.923958|
|        3067|   -3.960573|   -0.395620|   -0.246906|   -3.898576|
|        3068|   -3.950317|   -0.397226|   -0.224408|   -3.875832|
|        3069|   -3.934174|   -0.400380|   -0.198441|   -3.856064|
|        3070|   -3.926666|   -0.405415|   -0.180405|   -3.838670|
|        3071|   -3.916681|   -0.410788|   -0.161477|   -3.823856|
|        3072|   -3.911353|   -0.415477|   -0.147623|   -3.811284|
|        3073|   -3.901909|   -0.418932|   -0.131176|   -3.802010|
|        3074|   -3.901227|   -0.422203|   -0.123332|   -3.795644|
|        3075|   -3.890139|   -0.424266|   -0.107207|   -3.791726|
|        3076|   -3.890108|   -0.426149|   -0.099333|   -3.791016|
|        3077|   -3.885197|   -0.428300|   -0.088239|   -3.793490|
|        3078|   -3.889929|   -0.429792|   -0.087173|   -3.798594|
|        3079|   -3.887394|   -0.430552|   -0.082036|   -3.805404|
|        3080|   -3.886931|   -0.431966|   -0.078283|   -3.813720|
|        3081|   -3.887066|   -0.433127|   -0.075219|   -3.823134|
|        3082|   -3.888893|   -0.434691|   -0.074696|   -3.833555|
|        3083|   -3.891469|   -0.436804|   -0.075903|   -3.844969|
|        3084|   -3.898779|   -0.439508|   -0.081885|   -3.857264|
|        3085|   -3.903621|   -0.442557|   -0.086597|   -3.870566|
|        3086|   -3.913127|   -0.445298|   -0.095548|   -3.884839|
|        3087|   -3.921551|   -0.447174|   -0.103845|   -3.899834|
|        3088|   -3.932151|   -0.447929|   -0.114416|   -3.915477|
|        3089|   -3.942853|   -0.448045|   -0.125657|   -3.931687|
|        3090|   -3.955249|   -0.446844|   -0.139339|   -3.948393|
|        3091|   -3.966651|   -0.444118|   -0.153181|   -3.965583|
|        3092|   -3.979598|   -0.439489|   -0.169368|   -3.983272|
|        3093|   -3.991803|   -0.433481|   -0.185825|   -4.001527|
|        3094|   -4.004867|   -0.426594|   -0.203687|   -4.020412|
|        3095|   -4.018073|   -0.419451|   -0.222323|   -4.039960|
|        3096|   -4.031223|   -0.412909|   -0.241448|   -4.060155|
|        3097|   -4.046269|   -0.407530|   -0.262506|   -4.081102|
|        3098|   -4.062481|   -0.403169|   -0.285202|   -4.102718|
|        3099|   -4.079447|   -0.399609|   -0.309124|   -4.125060|
|        3100|   -4.098338|   -0.396550|   -0.335221|   -4.148190|
|        3101|   -4.118666|   -0.393522|   -0.363363|   -4.172063|
