scsub> Executing:  'cd /home/hem1dev/Codes/SU2_Github_Mark_Test/SU2/Venturi'


WARNING: CONV_CRITERIA is deprecated. SU2 will choose the criteria automatically based on the CONV_FIELD.
That is, RESIDUAL for any RMS_* BGS_* value, and CAUCHY for coefficients such as DRAG etc.


-------------------------------------------------------------------------
|    ___ _   _ ___                                                      |
|   / __| | | |_  )   Release 7.1.1 "Blackbird"                         |
|   \__ \ |_| |/ /                                                      |
|   |___/\___//___|   Suite (Computational Fluid Dynamics Code)         |
|                                                                       |
-------------------------------------------------------------------------
| SU2 Project Website: https://su2code.github.io                        |
|                                                                       |
| The SU2 Project is maintained by the SU2 Foundation                   |
| (http://su2foundation.org)                                            |
-------------------------------------------------------------------------
| Copyright 2012-2021, SU2 Contributors                                 |
|                                                                       |
| SU2 is free software; you can redistribute it and/or                  |
| modify it under the terms of the GNU Lesser General Public            |
| License as published by the Free Software Foundation; either          |
| version 2.1 of the License, or (at your option) any later version.    |
|                                                                       |
| SU2 is distributed in the hope that it will be useful,                |
| but WITHOUT ANY WARRANTY; without even the implied warranty of        |
| MERCHANTABILITY or FITNESS FOR A PARTICULAR PURPOSE. See the GNU      |
| Lesser General Public License for more details.                       |
|                                                                       |
| You should have received a copy of the GNU Lesser General Public      |
| License along with SU2. If not, see <http://www.gnu.org/licenses/>.   |
-------------------------------------------------------------------------


WARNING: CONV_CRITERIA is deprecated. SU2 will choose the criteria automatically based on the CONV_FIELD.
That is, RESIDUAL for any RMS_* BGS_* value, and CAUCHY for coefficients such as DRAG etc.


Parsing config file for zone 0


WARNING: CONV_CRITERIA is deprecated. SU2 will choose the criteria automatically based on the CONV_FIELD.
That is, RESIDUAL for any RMS_* BGS_* value, and CAUCHY for coefficients such as DRAG etc.


----------------- Physical Case Definition ( Zone 0 ) -------------------
Incompressible RANS equations.
Turbulence model: Menter's SST
Hybrid RANS/LES: No Hybrid RANS/LES
No restart solution, use the values at infinity (freestream).
Dimensional simulation.
The reference area is 1 m^2.
The semi-span will be computed using the max y(3D) value.
The reference length is 1 m.
Input mesh file name: venturi_refined_withblock.cgns

--------------- Space Numerical Integration ( Zone 0 ) ------------------
Flux difference splitting (FDS) upwind scheme for the flow inviscid terms.
Second order integration in space, with slope limiter.
No slope-limiting method. 
Average of gradients with correction (viscous flow terms).
Average of gradients with correction (viscous turbulence terms).
Gradient for upwind reconstruction: inverse-distance weighted Least-Squares.
Gradient for viscous and source terms: inverse-distance weighted Least-Squares.

--------------- Time Numerical Integration  ( Zone 0 ) ------------------
Local time stepping (steady state simulation).
Euler implicit method for the flow equations.
FGMRES is used for solving the linear system.
Using a ILU(0) preconditioning.
Convergence criteria of the linear solver: 1e-08.
Max number of linear iterations: 30.
No CFL adaptation.
Courant-Friedrichs-Lewy number:      100
Euler implicit time integration for the turbulence model.

------------------ Convergence Criteria  ( Zone 0 ) ---------------------
Maximum number of solver subiterations: 50000.
Begin convergence monitoring at iteration 10.
Residual minimum value: 1e-10.
Cauchy series min. value: 1e-06.
Number of Cauchy elements: 100.
Begin windowed time average at iteration 0.

-------------------- Output Information ( Zone 0 ) ----------------------
Writing solution files every 5000 iterations.
Writing the convergence history file every 1 inner iterations.
Writing the screen convergence history every 1 inner iterations.
The tabular file format is CSV (.csv).
Convergence history file name: history_refined_withblock.
Forces breakdown file name: forces_breakdown.dat.
Surface file name: surface_flow_venturi_mixturedensity_30kW_refined_withblock.
Volume file name: flow_venturi_mixturedensity_30kW_refined_withblock.
Restart file name: restart_venturi_mixturedensity_30kW_refined_withblock.dat.

------------- Config File Boundary Information ( Zone 0 ) ---------------
+-----------------------------------------------------------------------+
|                        Marker Type|                        Marker Name|
+-----------------------------------------------------------------------+
|                     Symmetry plane|                               axis|
+-----------------------------------------------------------------------+
|                     Inlet boundary|                          gas_inlet|
|                                   |                          air_inlet|
+-----------------------------------------------------------------------+
|                    Outlet boundary|                             outlet|
+-----------------------------------------------------------------------+
|                     Heat flux wall|                    wall_needlecase|
|                                   |                        wall_needle|
|                                   |                       wall_venturi|
+-----------------------------------------------------------------------+

-------------------- Output Preprocessing ( Zone 0 ) --------------------
Screen output fields: INNER_ITER, RMS_PRESSURE, RMS_VELOCITY-X, RMS_VELOCITY-Y, RMS_PASSIVE_SCALAR
History output group(s): RMS_RES, AERO_COEFF, FLOW_COEFF
Convergence field(s): RMS_PRESSURE, RMS_VELOCITY-X, RMS_VELOCITY-Y, RMS_TKE
Warning: No (valid) fields chosen for time convergence monitoring. Time convergence monitoring inactive.
  Info: Ignoring the following volume output fields/groups:
  SOURCE, LOOKUP
Volume output fields: DENSITY, SOLUTION, PRIMITIVE, RESIDUAL, COORDINATES

------------------- Geometry Preprocessing ( Zone 0 ) -------------------
Reading the CGNS file: venturi_refined_withblock.cgns.
CGNS file contains 1 database(s).
Database 1, Base:  cell dimension of 2, physical dimension of 2.
1 total zone(s).
Zone 1, Zone: 119005 total vertices, 121308 total elements.
Loading CoordinateX values into linear partitions.
Loading CoordinateY values into linear partitions.
Distributing connectivity across all ranks.
Number of connectivity sections is 8.
Section fluid-part-surface_body contains 116850 elements of type Mixed.
Section gas_inlet contains 37 elements of type Mixed.
Section air_inlet contains 111 elements of type Mixed.
Section outlet contains 59 elements of type Mixed.
Section axis contains 1283 elements of type Mixed.
Section wall_venturi contains 1438 elements of type Mixed.
Section wall_needle contains 680 elements of type Mixed.
Section wall_needlecase contains 850 elements of type Mixed.
Loading volume section fluid-part-surface_body from file.
Loading surface section gas_inlet from file.
Loading surface section air_inlet from file.
Loading surface section outlet from file.
Loading surface section axis from file.
Loading surface section wall_venturi from file.
Loading surface section wall_needle from file.
Loading surface section wall_needlecase from file.
Two dimensional problem.
119005 grid points before partitioning.
116850 volume elements before partitioning.
7 surface markers.
37 boundary elements in index 0 (Marker = gas_inlet).
111 boundary elements in index 1 (Marker = air_inlet).
59 boundary elements in index 2 (Marker = outlet).
1283 boundary elements in index 3 (Marker = axis).
1438 boundary elements in index 4 (Marker = wall_venturi).
680 boundary elements in index 5 (Marker = wall_needle).
850 boundary elements in index 6 (Marker = wall_needlecase).
Executing the partitioning functions.
Building the graph adjacency structure.
Calling ParMETIS... graph partitioning complete (7852 edge cuts).
Distributing ParMETIS coloring.
Rebalancing vertices.
Rebalancing volume element connectivity.
Rebalancing markers and surface elements.
134978 vertices including ghost points. 
124698 interior elements including halo cells. 
153 triangles.
124545 quadrilaterals.
Establishing MPI communication patterns.
Setting point connectivity.
Renumbering points (Reverse Cuthill McKee Ordering).
Recomputing point connectivity.
Setting element connectivity.
Checking the numerical grid orientation.
All volume elements are correctly orientend.
All surface elements are correctly orientend.
Identifying edges and vertices.
Setting the control volume structure.
Area of the computational grid: 0.00391554.
Searching for the closest normal neighbors to the surfaces.
Storing a mapping from global to local point index.
Compute the surface curvature.
Max K: 18506.3. Mean K: 143.652. Standard deviation K: 1205.15.
Checking for periodicity.
Computing mesh quality statistics for the dual control volumes.
+--------------------------------------------------------------+
|           Mesh Quality Metric|        Minimum|        Maximum|
+--------------------------------------------------------------+
|    Orthogonality Angle (deg.)|        52.0822|        89.9999|
|     CV Face Area Aspect Ratio|        1.00004|        12.1311|
|           CV Sub-Volume Ratio|              1|         16.456|
+--------------------------------------------------------------+
Finding max control volume width.
Communicating number of neighbors.
Wetted area = 0 m^2.
Area projection in the x-plane = 0 m, y-plane = 0 m.
Max. coordinate in the x-direction = -1e+10 m, y-direction = -1e+10 m.
Min. coordinate in the x-direction = 1e+10 m, y-direction = 1e+10 m.
Checking if Euler & Symmetry markers are straight/plane:
Boundary marker axis is a single straight.
Computing wall distances.

-------------------- Solver Preprocessing ( Zone 0 ) --------------------
Incompressible flow: rho_ref, vel_ref, temp_ref, p_ref
are set to 1.0 in order to perform a dimensional calculation.
Force coefficients computed using initial values.
The reference area for force coeffs. is 1 m^2.
The reference length for force coeffs. is 1 m.
The pressure is decomposed into thermodynamic and dynamic components.
The initial value of the dynamic pressure is 0.
Mach number: 0, computed using fluid speed of sound.
For external flows, the initial state is imposed at the far-field.
Angle of attack (deg): 0, computed using the initial velocity.
Side slip angle (deg): 0, computed using the initial velocity.
Reynolds number per meter: 63489.9, computed using initial values.
Reynolds number is a byproduct of inputs only (not used internally).
SI units only. The grid should be dimensional (meters).
Energy equation is active and coupled for variable density.

-- Models:
+------------------------------------------------------------------------------+
|          Viscosity Model|        Conductivity Model|              Fluid Model|
+------------------------------------------------------------------------------+
|               SUTHERLAND|          CONSTANT_PRANDTL|            INC_IDEAL_GAS|
+------------------------------------------------------------------------------+
-- Fluid properties:
+------------------------------------------------------------------------------+
|                  Name|    Dim. value|    Ref. value|      Unit|Non-dim. value|
+------------------------------------------------------------------------------+
|        Ref. Viscosity|     1.716e-05|             1|   N.s/m^2|     1.716e-05|
|      Sutherland Temp.|        273.15|             1|         K|        273.15|
|     Sutherland Const.|         110.4|             1|         K|         110.4|
+------------------------------------------------------------------------------+
|        Prandtl (Lam.)|             -|             -|         -|          0.72|
|       Prandtl (Turb.)|             -|             -|         -|           0.9|
+------------------------------------------------------------------------------+
|       Spec. Heat (Cp)|        1004.7|             1|  N.m/kg.K|        1004.7|
|      Molecular weight|       12.8252|             1|     g/mol|       12.8252|
|          Gas Constant|       296.945|             1|  N.m/kg.K|       296.945|
|       Therm. Pressure|        104403|             1|        Pa|        104403|
+------------------------------------------------------------------------------+
-- Initial and free-stream conditions:
+------------------------------------------------------------------------------+
|                  Name|    Dim. value|    Ref. value|      Unit|Non-dim. value|
+------------------------------------------------------------------------------+
|      Dynamic Pressure|             0|             1|        Pa|             0|
|        Total Pressure|      0.585985|             1|        Pa|      0.585985|
|               Density|       1.17197|             1|    kg/m^3|       1.17197|
|           Temperature|           300|             1|         K|           300|
|            Velocity-X|             1|             1|       m/s|             1|
|            Velocity-Y|             0|             1|       m/s|             0|
|    Velocity Magnitude|             1|             1|       m/s|             1|
+------------------------------------------------------------------------------+
|             Viscosity|   1.84592e-05|             1|   N.s/m^2|   1.84592e-05|
|          Conductivity|             -|             1|   W/m^2.K|             -|
|     Turb. Kin. Energy|       0.00375|             1|   m^2/s^2|       0.00375|
|     Spec. Dissipation|       23.8087|             1|       1/s|       23.8087|
+------------------------------------------------------------------------------+
|           Mach Number|             -|             -|         -|             0|
|       Reynolds Number|             -|             -|         -|       63489.9|
+------------------------------------------------------------------------------+
Initialize Jacobian structure (Navier-Stokes). MG level: 0.
Initialize Jacobian structure (passive scalar model).
Initialize Jacobian structure (SST model).

------------------- Numerics Preprocessing ( Zone 0 ) -------------------

----------------- Integration Preprocessing ( Zone 0 ) ------------------

------------------- Iteration Preprocessing ( Zone 0 ) ------------------
Euler/Navier-Stokes/RANS fluid iteration.

------------------------------ Begin Solver -----------------------------

Simulation Run using the Single-zone Driver
Initializing passive scalar (initial condition).
initialization = 1 1
+----------------------------------------------------------------+
|  Inner_Iter|      rms[P]|      rms[U]|      rms[V]|      rms[c]|
+----------------------------------------------------------------+
|           0|   -4.417611|   -4.240282|   -3.653204|   -5.132150|
|           1|   -4.734942|   -4.290960|   -3.746898|   -4.670453|
|           2|   -5.041694|   -4.411779|   -3.946169|   -5.002646|
|           3|   -5.010571|   -4.530495|   -3.871287|   -5.245051|
|           4|   -5.127298|   -4.574257|   -3.979750|   -5.393039|
|           5|   -5.121389|   -4.553759|   -3.960768|   -5.481462|
|           6|   -5.094858|   -4.519095|   -3.877732|   -5.498988|
|           7|   -5.092945|   -4.481324|   -3.809658|   -5.487922|
|           8|   -5.102708|   -4.432589|   -3.772886|   -5.470745|
|           9|   -5.119937|   -4.373962|   -3.757885|   -5.456760|
|          10|   -5.137717|   -4.312147|   -3.749764|   -5.446632|
|          11|   -5.150917|   -4.252838|   -3.737411|   -5.438216|
|          12|   -5.159366|   -4.198683|   -3.718955|   -5.428848|
|          13|   -5.165031|   -4.149809|   -3.697121|   -5.417205|
|          14|   -5.169943|   -4.105135|   -3.675052|   -5.403092|
|          15|   -5.175057|   -4.063420|   -3.654509|   -5.387052|
|          16|   -5.180487|   -4.023854|   -3.635729|   -5.369794|
|          17|   -5.185960|   -3.986105|   -3.618573|   -5.351841|
|          18|   -5.191247|   -3.950132|   -3.602490|   -5.333483|
|          19|   -5.196287|   -3.915965|   -3.587276|   -5.314202|
|          20|   -5.201127|   -3.883600|   -3.572879|   -5.296039|
|          21|   -5.205892|   -3.852977|   -3.559339|   -5.278513|
|          22|   -5.210660|   -3.823994|   -3.546720|   -5.261319|
|          23|   -5.215465|   -3.796532|   -3.535036|   -5.244456|
|          24|   -5.220292|   -3.770468|   -3.524187|   -5.228148|
|          25|   -5.225134|   -3.745691|   -3.514032|   -5.212132|
|          26|   -5.229979|   -3.722099|   -3.504466|   -5.196432|
|          27|   -5.234849|   -3.699614|   -3.495463|   -5.180972|
|          28|   -5.239768|   -3.678171|   -3.486985|   -5.165762|
|          29|   -5.244773|   -3.657717|   -3.479028|   -5.150869|
|          30|   -5.249893|   -3.638207|   -3.471601|   -5.136331|
|          31|   -5.255148|   -3.619600|   -3.464697|   -5.122106|
|          32|   -5.260543|   -3.601854|   -3.458316|   -5.108287|
|          33|   -5.266067|   -3.584923|   -3.452470|   -5.095032|
|          34|   -5.271705|   -3.568768|   -3.447140|   -5.081870|
|          35|   -5.277436|   -3.553348|   -3.442307|   -5.068766|
|          36|   -5.283234|   -3.538631|   -3.437941|   -5.055679|
|          37|   -5.289063|   -3.524586|   -3.434004|   -5.042571|
|          38|   -5.294886|   -3.511187|   -3.430449|   -5.029680|
|          39|   -5.300662|   -3.498413|   -3.427225|   -5.017034|
|          40|   -5.306355|   -3.486239|   -3.424277|   -5.004592|
|          41|   -5.311920|   -3.474635|   -3.421545|   -4.992311|
|          42|   -5.317333|   -3.463566|   -3.418985|   -4.980120|
|          43|   -5.322572|   -3.452990|   -3.416557|   -4.967909|
|          44|   -5.327624|   -3.442855|   -3.414241|   -4.955638|
|          45|   -5.332483|   -3.433101|   -3.412024|   -4.943395|
|          46|   -5.337156|   -3.423655|   -3.409918|   -4.931520|
|          47|   -5.341652|   -3.414451|   -3.407937|   -4.920163|
|          48|   -5.345990|   -3.405415|   -3.406123|   -4.909437|
|          49|   -5.350191|   -3.396482|   -3.404521|   -4.899392|
|          50|   -5.354321|   -3.387585|   -3.402498|   -4.889972|
|          51|   -5.358430|   -3.378675|   -3.400627|   -4.880985|
|          52|   -5.362460|   -3.369715|   -3.399307|   -4.872218|
|          53|   -5.366513|   -3.360690|   -3.398567|   -4.864086|
|          54|   -5.370672|   -3.351583|   -3.398479|   -4.856392|
|          55|   -5.374993|   -3.342405|   -3.399097|   -4.849044|
|          56|   -5.379548|   -3.333185|   -3.400462|   -4.841971|
|          57|   -5.384397|   -3.323974|   -3.402595|   -4.835116|
|          58|   -5.389606|   -3.314828|   -3.405517|   -4.828529|
|          59|   -5.395235|   -3.305800|   -3.409254|   -4.822150|
|          60|   -5.401295|   -3.296980|   -3.413833|   -4.815991|
|          61|   -5.407825|   -3.288464|   -3.419276|   -4.810036|
|          62|   -5.414833|   -3.280358|   -3.425605|   -4.804428|
|          63|   -5.422470|   -3.272619|   -3.432835|   -4.799009|
|          64|   -5.430751|   -3.265190|   -3.440987|   -4.793852|
|          65|   -5.439672|   -3.258070|   -3.450078|   -4.788916|
|          66|   -5.449212|   -3.251298|   -3.460140|   -4.784184|
|          67|   -5.459381|   -3.244930|   -3.471080|   -4.779690|
|          68|   -5.470217|   -3.238978|   -3.483039|   -4.775440|
|          69|   -5.481729|   -3.233413|   -3.496008|   -4.771411|
|          70|   -5.493941|   -3.228234|   -3.509881|   -4.767466|
|          71|   -5.506972|   -3.223429|   -3.524236|   -4.763636|
|          72|   -5.520641|   -3.218999|   -3.539759|   -4.759961|
|          73|   -5.534890|   -3.214937|   -3.556307|   -4.756388|
|          74|   -5.549759|   -3.211237|   -3.574059|   -4.752933|
|          75|   -5.565273|   -3.207878|   -3.592883|   -4.749556|
|          76|   -5.581357|   -3.204857|   -3.612931|   -4.746240|
|          77|   -5.597875|   -3.202165|   -3.634073|   -4.742996|
|          78|   -5.614741|   -3.199788|   -3.655990|   -4.739776|
|          79|   -5.631822|   -3.197717|   -3.678273|   -4.736529|
|          80|   -5.648954|   -3.195935|   -3.700334|   -4.733294|
|          81|   -5.665929|   -3.194420|   -3.721494|   -4.730004|
|          82|   -5.682492|   -3.193153|   -3.740982|   -4.726694|
|          83|   -5.698336|   -3.192132|   -3.758175|   -4.723333|
|          84|   -5.713098|   -3.191370|   -3.772157|   -4.719946|
|          85|   -5.726363|   -3.190841|   -3.781127|   -4.716458|
|          86|   -5.737664|   -3.190473|   -3.783000|   -4.712924|
|          87|   -5.746586|   -3.190177|   -3.776512|   -4.709312|
|          88|   -5.752740|   -3.189815|   -3.761561|   -4.705599|
|          89|   -5.755793|   -3.189285|   -3.739433|   -4.701740|
|          90|   -5.755582|   -3.188512|   -3.712587|   -4.697769|
|          91|   -5.752090|   -3.187520|   -3.683566|   -4.693634|
|          92|   -5.745397|   -3.186461|   -3.654087|   -4.689460|
|          93|   -5.735915|   -3.185572|   -3.625114|   -4.685325|
|          94|   -5.724376|   -3.185350|   -3.597828|   -4.681369|
|          95|   -5.711449|   -3.186184|   -3.571223|   -4.677624|
|          96|   -5.696904|   -3.187618|   -3.543328|   -4.674213|
|          97|   -5.680853|   -3.189190|   -3.515576|   -4.671065|
|          98|   -5.664204|   -3.191517|   -3.490247|   -4.668368|
|          99|   -5.647692|   -3.195449|   -3.468494|   -4.666106|
|         100|   -5.630686|   -3.200435|   -3.449033|   -4.664020|
|         101|   -5.613195|   -3.205154|   -3.429573|   -4.661922|
|         102|   -5.596116|   -3.209332|   -3.412160|   -4.659820|
|         103|   -5.579530|   -3.213631|   -3.397463|   -4.657678|
|         104|   -5.563227|   -3.218478|   -3.384008|   -4.655617|
|         105|   -5.547528|   -3.223557|   -3.371680|   -4.653681|
|         106|   -5.532759|   -3.229019|   -3.360137|   -4.651855|
|         107|   -5.518815|   -3.235215|   -3.348701|   -4.650112|
|         108|   -5.505668|   -3.241810|   -3.337607|   -4.648479|
|         109|   -5.493372|   -3.248337|   -3.327544|   -4.646942|
|         110|   -5.481922|   -3.254570|   -3.318504|   -4.645472|
|         111|   -5.471306|   -3.260375|   -3.309937|   -4.644083|
|         112|   -5.461485|   -3.265559|   -3.301400|   -4.642770|
|         113|   -5.452346|   -3.269919|   -3.292754|   -4.641558|
|         114|   -5.443848|   -3.273581|   -3.284165|   -4.640390|
|         115|   -5.435965|   -3.276976|   -3.275744|   -4.639302|
|         116|   -5.428693|   -3.280475|   -3.267608|   -4.638337|
|         117|   -5.422019|   -3.284123|   -3.259917|   -4.637495|
|         118|   -5.415964|   -3.287798|   -3.252628|   -4.636825|
|         119|   -5.410536|   -3.291538|   -3.245944|   -4.636286|
|         120|   -5.405745|   -3.295566|   -3.239908|   -4.635758|
|         121|   -5.401658|   -3.300024|   -3.234491|   -4.635111|
|         122|   -5.398326|   -3.304708|   -3.229590|   -4.634365|
|         123|   -5.395822|   -3.309134|   -3.225151|   -4.633641|
|         124|   -5.394174|   -3.312764|   -3.221103|   -4.633023|
|         125|   -5.393348|   -3.315105|   -3.217386|   -4.632384|
|         126|   -5.393253|   -3.315887|   -3.213977|   -4.631568|
|         127|   -5.393759|   -3.315161|   -3.210928|   -4.630757|
|         128|   -5.394747|   -3.313239|   -3.208380|   -4.630388|
|         129|   -5.396105|   -3.310611|   -3.206497|   -4.630823|
|         130|   -5.397763|   -3.307915|   -3.205446|   -4.631958|
|         131|   -5.399652|   -3.305708|   -3.205232|   -4.633505|
|         132|   -5.401781|   -3.304223|   -3.205743|   -4.635283|
|         133|   -5.404059|   -3.303125|   -3.206698|   -4.637166|
|         134|   -5.406602|   -3.302001|   -3.207924|   -4.639065|
|         135|   -5.409384|   -3.300176|   -3.208131|   -4.640765|
|         136|   -5.412495|   -3.297203|   -3.206911|   -4.642160|
|         137|   -5.415833|   -3.293459|   -3.205891|   -4.643431|
|         138|   -5.419324|   -3.289265|   -3.204885|   -4.644723|
|         139|   -5.423070|   -3.284973|   -3.203890|   -4.646073|
|         140|   -5.427043|   -3.280804|   -3.202905|   -4.647522|
|         141|   -5.431361|   -3.276839|   -3.202142|   -4.649129|
|         142|   -5.436022|   -3.273031|   -3.201808|   -4.650909|
|         143|   -5.441122|   -3.269168|   -3.202252|   -4.652875|
|         144|   -5.446535|   -3.265073|   -3.203426|   -4.654975|
|         145|   -5.452204|   -3.260564|   -3.205216|   -4.657117|
|         146|   -5.457982|   -3.255437|   -3.207267|   -4.659279|
|         147|   -5.463782|   -3.249542|   -3.209303|   -4.661468|
|         148|   -5.469508|   -3.242845|   -3.211064|   -4.663680|
|         149|   -5.475155|   -3.235479|   -3.212519|   -4.665911|
|         150|   -5.480687|   -3.227781|   -3.213675|   -4.668111|
|         151|   -5.486178|   -3.220432|   -3.214776|   -4.670253|
|         152|   -5.491668|   -3.214320|   -3.216187|   -4.672340|
|         153|   -5.497140|   -3.210120|   -3.218122|   -4.674379|
|         154|   -5.502581|   -3.207935|   -3.220620|   -4.676367|
|         155|   -5.507975|   -3.207233|   -3.223485|   -4.678306|
|         156|   -5.513328|   -3.207180|   -3.226459|   -4.680206|
|         157|   -5.518656|   -3.207100|   -3.229431|   -4.682091|
|         158|   -5.524019|   -3.206724|   -3.232403|   -4.683997|
|         159|   -5.529483|   -3.206066|   -3.235464|   -4.685925|
|         160|   -5.535020|   -3.205136|   -3.238605|   -4.687873|
|         161|   -5.540679|   -3.203857|   -3.241884|   -4.689861|
|         162|   -5.546456|   -3.202132|   -3.245284|   -4.691908|
|         163|   -5.552355|   -3.199940|   -3.248783|   -4.694022|
|         164|   -5.558386|   -3.197361|   -3.252383|   -4.696259|
|         165|   -5.564575|   -3.194519|   -3.256117|   -4.698547|
|         166|   -5.570938|   -3.191518|   -3.260012|   -4.700948|
|         167|   -5.577485|   -3.188431|   -3.264094|   -4.703427|
|         168|   -5.584230|   -3.185307|   -3.268389|   -4.706023|
|         169|   -5.591189|   -3.182195|   -3.272931|   -4.708597|
|         170|   -5.598379|   -3.179147|   -3.277755|   -4.711290|
|         171|   -5.605814|   -3.176205|   -3.282892|   -4.714037|
|         172|   -5.613504|   -3.173393|   -3.288363|   -4.716899|
|         173|   -5.621463|   -3.170715|   -3.294181|   -4.719736|
|         174|   -5.629704|   -3.168158|   -3.300358|   -4.722461|
|         175|   -5.638247|   -3.165698|   -3.306906|   -4.725300|
|         176|   -5.647107|   -3.163309|   -3.313842|   -4.728258|
|         177|   -5.656304|   -3.160972|   -3.321189|   -4.731247|
|         178|   -5.665856|   -3.158670|   -3.328968|   -4.734284|
|         179|   -5.675782|   -3.156393|   -3.337206|   -4.737361|
|         180|   -5.686102|   -3.154130|   -3.345926|   -4.740366|
|         181|   -5.696829|   -3.151878|   -3.355144|   -4.743310|
|         182|   -5.707978|   -3.149635|   -3.364877|   -4.746213|
|         183|   -5.719564|   -3.147403|   -3.375135|   -4.749075|
|         184|   -5.731595|   -3.145181|   -3.385934|   -4.751916|
|         185|   -5.744078|   -3.142972|   -3.397295|   -4.754767|
|         186|   -5.757014|   -3.140780|   -3.409228|   -4.757673|
|         187|   -5.770403|   -3.138611|   -3.421745|   -4.760697|
|         188|   -5.784239|   -3.136471|   -3.434854|   -4.763710|
|         189|   -5.798512|   -3.134368|   -3.448561|   -4.766796|
|         190|   -5.813204|   -3.132309|   -3.462866|   -4.769861|
|         191|   -5.828289|   -3.130303|   -3.477769|   -4.772903|
|         192|   -5.843732|   -3.128360|   -3.493261|   -4.775913|
|         193|   -5.859487|   -3.126487|   -3.509330|   -4.778888|
|         194|   -5.875495|   -3.124694|   -3.525951|   -4.781824|
|         195|   -5.891679|   -3.122987|   -3.543091|   -4.784714|
|         196|   -5.907947|   -3.121373|   -3.560702|   -4.787551|
|         197|   -5.924182|   -3.119859|   -3.578715|   -4.790327|
|         198|   -5.940246|   -3.118451|   -3.597033|   -4.793035|
|         199|   -5.956004|   -3.117150|   -3.615452|   -4.795666|
|         200|   -5.971230|   -3.115964|   -3.633935|   -4.798207|
|         201|   -5.985698|   -3.114896|   -3.652267|   -4.800646|
|         202|   -5.999168|   -3.113949|   -3.670221|   -4.802971|
|         203|   -6.011367|   -3.113125|   -3.687506|   -4.805168|
|         204|   -6.022021|   -3.112426|   -3.703791|   -4.807222|
|         205|   -6.030860|   -3.111854|   -3.718696|   -4.809116|
|         206|   -6.037635|   -3.111409|   -3.731813|   -4.810831|
|         207|   -6.042142|   -3.111091|   -3.742729|   -4.812348|
|         208|   -6.044241|   -3.110901|   -3.751062|   -4.813645|
|         209|   -6.043867|   -3.110836|   -3.756502|   -4.814701|
|         210|   -6.041038|   -3.110897|   -3.758843|   -4.815556|
|         211|   -6.035853|   -3.111082|   -3.758019|   -4.816143|
|         212|   -6.028484|   -3.111389|   -3.754111|   -4.816419|
|         213|   -6.019153|   -3.111816|   -3.747330|   -4.816352|
|         214|   -6.008118|   -3.112360|   -3.737995|   -4.815959|
|         215|   -5.995652|   -3.113017|   -3.726493|   -4.815179|
|         216|   -5.982024|   -3.113785|   -3.713237|   -4.813969|
|         217|   -5.967487|   -3.114660|   -3.698635|   -4.812316|
|         218|   -5.952272|   -3.115640|   -3.683064|   -4.810176|
|         219|   -5.936584|   -3.116719|   -3.666857|   -4.807533|
|         220|   -5.920596|   -3.117896|   -3.650295|   -4.804333|
|         221|   -5.904454|   -3.119164|   -3.633608|   -4.800538|
|         222|   -5.888275|   -3.120518|   -3.616975|   -4.796113|
|         223|   -5.872156|   -3.121953|   -3.600537|   -4.791034|
|         224|   -5.856356|   -3.123457|   -3.583884|   -4.785289|
|         225|   -5.841001|   -3.125026|   -3.567327|   -4.778860|
|         226|   -5.825805|   -3.126661|   -3.551398|   -4.771729|
|         227|   -5.810769|   -3.128351|   -3.535844|   -4.763913|
|         228|   -5.796044|   -3.130087|   -3.520770|   -4.754432|
|         229|   -5.781604|   -3.131861|   -3.506161|   -4.743662|
|         230|   -5.767481|   -3.133663|   -3.492064|   -4.734057|
|         231|   -5.753670|   -3.135484|   -3.478469|   -4.725672|
|         232|   -5.740174|   -3.137312|   -3.465376|   -4.717745|
|         233|   -5.726988|   -3.139138|   -3.452773|   -4.709504|
|         234|   -5.714104|   -3.140951|   -3.440648|   -4.702099|
|         235|   -5.701514|   -3.142741|   -3.428984|   -4.694693|
|         236|   -5.689226|   -3.144498|   -3.417656|   -4.687237|
|         237|   -5.677228|   -3.146213|   -3.406751|   -4.679884|
|         238|   -5.665472|   -3.147880|   -3.396260|   -4.673175|
|         239|   -5.653961|   -3.149488|   -3.386166|   -4.666239|
|         240|   -5.642688|   -3.151029|   -3.376452|   -4.658585|
|         241|   -5.631645|   -3.152493|   -3.367105|   -4.651287|
|         242|   -5.620826|   -3.153872|   -3.358115|   -4.644757|
|         243|   -5.610235|   -3.155155|   -3.349420|   -4.638233|
|         244|   -5.599878|   -3.156334|   -3.341000|   -4.631394|
|         245|   -5.589750|   -3.157399|   -3.332837|   -4.624200|
|         246|   -5.579837|   -3.158343|   -3.325011|   -4.616929|
|         247|   -5.570127|   -3.159154|   -3.317509|   -4.609840|
|         248|   -5.560633|   -3.159821|   -3.310339|   -4.603185|
|         249|   -5.551352|   -3.160330|   -3.303501|   -4.596575|
|         250|   -5.542283|   -3.160673|   -3.296990|   -4.589889|
|         251|   -5.533432|   -3.160844|   -3.290768|   -4.583131|
|         252|   -5.524802|   -3.160840|   -3.284891|   -4.576747|
|         253|   -5.516380|   -3.160660|   -3.279344|   -4.570240|
|         254|   -5.508187|   -3.160296|   -3.274134|   -4.564253|
|         255|   -5.500219|   -3.159741|   -3.269254|   -4.558236|
|         256|   -5.492478|   -3.158986|   -3.264708|   -4.552209|
|         257|   -5.484962|   -3.158027|   -3.260496|   -4.545841|
|         258|   -5.477674|   -3.156866|   -3.256630|   -4.540302|
|         259|   -5.470620|   -3.155509|   -3.253101|   -4.534765|
|         260|   -5.463812|   -3.153968|   -3.249886|   -4.529227|
|         261|   -5.457256|   -3.152258|   -3.247056|   -4.523455|
|         262|   -5.450962|   -3.150388|   -3.244414|   -4.518437|
|         263|   -5.444950|   -3.148390|   -3.242142|   -4.513252|
|         264|   -5.439179|   -3.146274|   -3.240236|   -4.508261|
|         265|   -5.433674|   -3.144054|   -3.238716|   -4.503119|
|         266|   -5.428420|   -3.141764|   -3.237581|   -4.498597|
|         267|   -5.423432|   -3.139435|   -3.236852|   -4.494124|
|         268|   -5.418732|   -3.137097|   -3.236555|   -4.489259|
|         269|   -5.414342|   -3.134781|   -3.236713|   -4.485192|
|         270|   -5.410254|   -3.132512|   -3.237333|   -4.480422|
|         271|   -5.406463|   -3.130315|   -3.238415|   -4.476507|
|         272|   -5.402982|   -3.128213|   -3.239970|   -4.472271|
|         273|   -5.399818|   -3.126213|   -3.242014|   -4.468270|
|         274|   -5.396969|   -3.124330|   -3.244559|   -4.464386|
|         275|   -5.394418|   -3.122591|   -3.247594|   -4.460075|
|         276|   -5.392164|   -3.121000|   -3.251120|   -4.456610|
|         277|   -5.390243|   -3.119559|   -3.255155|   -4.452422|
|         278|   -5.388654|   -3.118263|   -3.259693|   -4.448796|
|         279|   -5.387381|   -3.117102|   -3.264720|   -4.445201|
|         280|   -5.386441|   -3.116047|   -3.270232|   -4.440927|
|         281|   -5.385851|   -3.115072|   -3.276245|   -4.438202|
|         282|   -5.385607|   -3.114155|   -3.282743|   -4.434103|
|         283|   -5.385685|   -3.113275|   -3.289698|   -4.431351|
|         284|   -5.386038|   -3.112392|   -3.297064|   -4.427547|
|         285|   -5.386854|   -3.111470|   -3.302401|   -4.424968|
|         286|   -5.388301|   -3.110878|   -3.306079|   -4.421949|
|         287|   -5.390096|   -3.110673|   -3.310143|   -4.419443|
|         288|   -5.392396|   -3.110476|   -3.314511|   -4.417695|
|         289|   -5.395143|   -3.110056|   -3.319182|   -4.414876|
|         290|   -5.398113|   -3.109357|   -3.324020|   -4.413610|
|         291|   -5.401396|   -3.108442|   -3.329068|   -4.412400|
|         292|   -5.404999|   -3.107341|   -3.334290|   -4.411637|
|         293|   -5.408990|   -3.106109|   -3.339703|   -4.411085|
|         294|   -5.413395|   -3.104803|   -3.345328|   -4.410821|
|         295|   -5.418247|   -3.103477|   -3.351194|   -4.410541|
|         296|   -5.423566|   -3.102186|   -3.357325|   -4.410641|
|         297|   -5.429355|   -3.100978|   -3.363744|   -4.411076|
|         298|   -5.435601|   -3.099887|   -3.370454|   -4.411264|
|         299|   -5.442405|   -3.098930|   -3.376407|   -4.412337|
|         300|   -5.449877|   -3.098258|   -3.380979|   -4.413852|
|         301|   -5.457840|   -3.098050|   -3.385890|   -4.415002|
|         302|   -5.466405|   -3.098099|   -3.391042|   -4.416584|
|         303|   -5.475666|   -3.098270|   -3.396571|   -4.418051|
|         304|   -5.485299|   -3.098523|   -3.402337|   -4.419835|
|         305|   -5.495275|   -3.098828|   -3.408310|   -4.421109|
|         306|   -5.505632|   -3.099213|   -3.414451|   -4.423055|
|         307|   -5.516334|   -3.099656|   -3.420713|   -4.424353|
|         308|   -5.527512|   -3.100177|   -3.427069|   -4.425544|
|         309|   -5.539129|   -3.100784|   -3.433524|   -4.427834|
|         310|   -5.551223|   -3.101453|   -3.440108|   -4.427585|
|         311|   -5.563818|   -3.102215|   -3.446822|   -4.429943|
|         312|   -5.576830|   -3.103017|   -3.453637|   -4.431070|
|         313|   -5.590304|   -3.103869|   -3.460560|   -4.430256|
|         314|   -5.604180|   -3.104793|   -3.467548|   -4.433497|
|         315|   -5.618420|   -3.105754|   -3.474567|   -4.433692|
|         316|   -5.633048|   -3.106770|   -3.481613|   -4.431831|
|         317|   -5.648011|   -3.107872|   -3.488637|   -4.435361|
|         318|   -5.663243|   -3.109022|   -3.495617|   -4.435816|
|         319|   -5.678751|   -3.110229|   -3.502548|   -4.433147|
|         320|   -5.694476|   -3.111526|   -3.509383|   -4.436121|
|         321|   -5.710258|   -3.112872|   -3.516083|   -4.436752|
|         322|   -5.726087|   -3.114270|   -3.522625|   -4.434907|
|         323|   -5.741863|   -3.115764|   -3.528952|   -4.436914|
|         324|   -5.757345|   -3.117311|   -3.535011|   -4.435987|
|         325|   -5.772546|   -3.118923|   -3.540798|   -4.436050|
|         326|   -5.787254|   -3.120632|   -3.546245|   -4.436686|
|         327|   -5.801212|   -3.122396|   -3.551308|   -4.435946|
|         328|   -5.814551|   -3.124266|   -3.556000|   -4.436361|
|         329|   -5.826774|   -3.126223|   -3.560221|   -4.435640|
|         330|   -5.837952|   -3.128250|   -3.564024|   -4.436114|
|         331|   -5.847927|   -3.130386|   -3.567384|   -4.435203|
|         332|   -5.856356|   -3.132594|   -3.570218|   -4.436057|
|         333|   -5.863540|   -3.134929|   -3.572613|   -4.435059|
|         334|   -5.868881|   -3.137322|   -3.574493|   -4.435439|
|         335|   -5.872939|   -3.139844|   -3.575901|   -4.435211|
|         336|   -5.875135|   -3.142433|   -3.576768|   -4.434889|
|         337|   -5.876142|   -3.145135|   -3.577234|   -4.435392|
|         338|   -5.875496|   -3.147913|   -3.577169|   -4.434491|
|         339|   -5.873793|   -3.150792|   -3.576746|   -4.434830|
|         340|   -5.870819|   -3.153758|   -3.575861|   -4.434880|
|         341|   -5.866856|   -3.156795|   -3.574610|   -4.434350|
|         342|   -5.862195|   -3.159938|   -3.573020|   -4.434526|
|         343|   -5.856674|   -3.163137|   -3.571072|   -4.435005|
|         344|   -5.850740|   -3.166416|   -3.568869|   -4.434993|
|         345|   -5.844384|   -3.169780|   -3.566413|   -4.434710|
|         346|   -5.837643|   -3.173201|   -3.563723|   -4.434863|
|         347|   -5.830739|   -3.176685|   -3.560834|   -4.435395|
|         348|   -5.823784|   -3.180253|   -3.557782|   -4.435713|
|         349|   -5.816678|   -3.183876|   -3.554544|   -4.435933|
|         350|   -5.809580|   -3.187536|   -3.551172|   -4.436126|
|         351|   -5.802537|   -3.191252|   -3.547648|   -4.436247|
|         352|   -5.795591|   -3.195026|   -3.544024|   -4.436594|
|         353|   -5.788742|   -3.198846|   -3.540325|   -4.437035|
|         354|   -5.782019|   -3.202702|   -3.536553|   -4.437670|
|         355|   -5.775462|   -3.206592|   -3.532718|   -4.438415|
|         356|   -5.769048|   -3.210513|   -3.528810|   -4.439169|
|         357|   -5.762783|   -3.214453|   -3.524839|   -4.439979|
|         358|   -5.756677|   -3.218412|   -3.520807|   -4.440787|
|         359|   -5.750734|   -3.222389|   -3.516682|   -4.441684|
|         360|   -5.744945|   -3.226387|   -3.512486|   -4.442687|
|         361|   -5.739313|   -3.230401|   -3.508234|   -4.443833|
|         362|   -5.733835|   -3.234421|   -3.503925|   -4.445153|
|         363|   -5.728501|   -3.238437|   -3.499552|   -4.446567|
|         364|   -5.723308|   -3.242444|   -3.495118|   -4.448204|
|         365|   -5.718249|   -3.246431|   -3.490619|   -4.449890|
|         366|   -5.713303|   -3.250392|   -3.486040|   -4.451652|
|         367|   -5.708478|   -3.254316|   -3.481388|   -4.453446|
|         368|   -5.703756|   -3.258194|   -3.476653|   -4.455227|
|         369|   -5.699145|   -3.262007|   -3.471834|   -4.457051|
|         370|   -5.694651|   -3.265733|   -3.466927|   -4.459109|
|         371|   -5.690274|   -3.269351|   -3.461930|   -4.461330|
|         372|   -5.686023|   -3.272835|   -3.456855|   -4.463509|
|         373|   -5.681908|   -3.276162|   -3.451717|   -4.465636|
|         374|   -5.677953|   -3.279307|   -3.446546|   -4.467697|
|         375|   -5.674168|   -3.282247|   -3.441368|   -4.470071|
|         376|   -5.670563|   -3.284948|   -3.436202|   -4.472753|
|         377|   -5.667167|   -3.287376|   -3.431085|   -4.475414|
|         378|   -5.663994|   -3.289493|   -3.426062|   -4.477814|
|         379|   -5.661056|   -3.291259|   -3.421196|   -4.480621|
|         380|   -5.658350|   -3.292638|   -3.416571|   -4.483320|
|         381|   -5.655850|   -3.293595|   -3.412275|   -4.485357|
|         382|   -5.653520|   -3.294136|   -3.408389|   -4.487088|
|         383|   -5.651300|   -3.294316|   -3.404941|   -4.488017|
|         384|   -5.649142|   -3.294240|   -3.401922|   -4.488725|
|         385|   -5.647040|   -3.293991|   -3.399298|   -4.488880|
|         386|   -5.645049|   -3.293606|   -3.397084|   -4.488951|
|         387|   -5.643201|   -3.293083|   -3.395276|   -4.488572|
|         388|   -5.641532|   -3.292456|   -3.393849|   -4.488369|
|         389|   -5.640083|   -3.291854|   -3.392751|   -4.488184|
|         390|   -5.638907|   -3.291452|   -3.391928|   -4.488393|
|         391|   -5.638060|   -3.291372|   -3.391341|   -4.489144|
|         392|   -5.637590|   -3.291601|   -3.390987|   -4.490215|
|         393|   -5.637503|   -3.291996|   -3.390891|   -4.492085|
|         394|   -5.637773|   -3.292446|   -3.391034|   -4.494314|
|         395|   -5.638376|   -3.292905|   -3.391395|   -4.497153|
|         396|   -5.639253|   -3.293358|   -3.391900|   -4.500196|
|         397|   -5.640377|   -3.293742|   -3.392474|   -4.503737|
|         398|   -5.641731|   -3.293996|   -3.393101|   -4.507112|
|         399|   -5.643270|   -3.294095|   -3.393857|   -4.510530|
|         400|   -5.644938|   -3.294115|   -3.394806|   -4.513986|
|         401|   -5.646718|   -3.294164|   -3.395991|   -4.517315|
|         402|   -5.648647|   -3.294313|   -3.397439|   -4.520618|
|         403|   -5.650746|   -3.294590|   -3.399152|   -4.523924|
|         404|   -5.653042|   -3.295008|   -3.401116|   -4.527035|
|         405|   -5.655546|   -3.295575|   -3.403310|   -4.530148|
|         406|   -5.658270|   -3.296298|   -3.405728|   -4.533235|
|         407|   -5.661238|   -3.297201|   -3.406954|   -4.536153|
|         408|   -5.664359|   -3.298313|   -3.407392|   -4.539281|
|         409|   -5.667732|   -3.299626|   -3.408140|   -4.542631|
|         410|   -5.671403|   -3.301074|   -3.409230|   -4.546011|
|         411|   -5.675313|   -3.302610|   -3.410648|   -4.549336|
|         412|   -5.679425|   -3.304199|   -3.412374|   -4.552774|
|         413|   -5.683692|   -3.305821|   -3.414374|   -4.556443|
|         414|   -5.688099|   -3.307463|   -3.416634|   -4.560114|
|         415|   -5.692636|   -3.309100|   -3.419132|   -4.563787|
|         416|   -5.697312|   -3.310708|   -3.421865|   -4.567502|
|         417|   -5.702139|   -3.312261|   -3.424837|   -4.571222|
|         418|   -5.707128|   -3.313736|   -3.428044|   -4.574935|
|         419|   -5.712284|   -3.315104|   -3.431483|   -4.578706|
|         420|   -5.717618|   -3.316343|   -3.435149|   -4.582468|
|         421|   -5.723132|   -3.317445|   -3.439032|   -4.586202|
|         422|   -5.728820|   -3.318398|   -3.443067|   -4.590008|
|         423|   -5.734678|   -3.319182|   -3.447276|   -4.593720|
|         424|   -5.740713|   -3.319777|   -3.451650|   -4.597463|
|         425|   -5.746919|   -3.320164|   -3.456172|   -4.601243|
|         426|   -5.753294|   -3.320327|   -3.460832|   -4.604853|
|         427|   -5.759834|   -3.320261|   -3.465620|   -4.608525|
|         428|   -5.766542|   -3.319966|   -3.470537|   -4.612149|
|         429|   -5.773424|   -3.319452|   -3.475592|   -4.615877|
|         430|   -5.780486|   -3.318729|   -3.480798|   -4.619568|
|         431|   -5.787745|   -3.317816|   -3.486183|   -4.623327|
|         432|   -5.795221|   -3.316729|   -3.491781|   -4.627256|
|         433|   -5.802933|   -3.315481|   -3.497629|   -4.630917|
|         434|   -5.810910|   -3.314080|   -3.503774|   -4.634320|
|         435|   -5.819170|   -3.312532|   -3.510254|   -4.637963|
|         436|   -5.827740|   -3.310832|   -3.517108|   -4.641910|
|         437|   -5.836640|   -3.308975|   -3.524364|   -4.645672|
|         438|   -5.845886|   -3.306956|   -3.532041|   -4.649483|
|         439|   -5.855492|   -3.304769|   -3.540145|   -4.653104|
|         440|   -5.865467|   -3.302417|   -3.548667|   -4.656553|
|         441|   -5.875814|   -3.299911|   -3.557587|   -4.659912|
|         442|   -5.886534|   -3.297270|   -3.566870|   -4.663472|
|         443|   -5.897623|   -3.294524|   -3.576484|   -4.667192|
|         444|   -5.909076|   -3.291703|   -3.586390|   -4.670900|
|         445|   -5.920893|   -3.288853|   -3.596542|   -4.674591|
|         446|   -5.933067|   -3.286010|   -3.606902|   -4.678243|
|         447|   -5.945593|   -3.283219|   -3.617436|   -4.681880|
|         448|   -5.958472|   -3.280522|   -3.628117|   -4.685549|
|         449|   -5.971701|   -3.277956|   -3.638928|   -4.689265|
|         450|   -5.985280|   -3.275560|   -3.649860|   -4.692948|
|         451|   -5.999198|   -3.273368|   -3.660889|   -4.696651|
|         452|   -6.013457|   -3.271414|   -3.671995|   -4.700361|
|         453|   -6.028012|   -3.269725|   -3.683223|   -4.704049|
|         454|   -6.042807|   -3.268320|   -3.694549|   -4.707697|
|         455|   -6.057778|   -3.267219|   -3.705955|   -4.711315|
|         456|   -6.072827|   -3.266440|   -3.717428|   -4.714895|
|         457|   -6.087799|   -3.265980|   -3.728922|   -4.718398|
|         458|   -6.102492|   -3.265828|   -3.740355|   -4.721951|
|         459|   -6.116654|   -3.265966|   -3.751634|   -4.725539|
|         460|   -6.129986|   -3.266376|   -3.762634|   -4.729327|
|         461|   -6.142144|   -3.267040|   -3.773205|   -4.733352|
|         462|   -6.152753|   -3.267937|   -3.783173|   -4.737850|
|         463|   -6.161453|   -3.269044|   -3.792357|   -4.742455|
|         464|   -6.167882|   -3.270342|   -3.800543|   -4.747082|
|         465|   -6.171761|   -3.271806|   -3.807528|   -4.751655|
|         466|   -6.172899|   -3.273416|   -3.813121|   -4.755901|
|         467|   -6.171232|   -3.275153|   -3.817147|   -4.759963|
|         468|   -6.166819|   -3.276996|   -3.819477|   -4.764092|
|         469|   -6.159837|   -3.278926|   -3.820040|   -4.768510|
|         470|   -6.150575|   -3.280926|   -3.818828|   -4.773025|
|         471|   -6.139366|   -3.282976|   -3.815885|   -4.777757|
|         472|   -6.126549|   -3.285062|   -3.811309|   -4.782085|
|         473|   -6.112506|   -3.287170|   -3.805257|   -4.785850|
|         474|   -6.097552|   -3.289287|   -3.797903|   -4.789958|
|         475|   -6.081971|   -3.291406|   -3.789438|   -4.794612|
|         476|   -6.066021|   -3.293519|   -3.780069|   -4.799688|
|         477|   -6.049885|   -3.295621|   -3.769965|   -4.804941|
|         478|   -6.033744|   -3.297709|   -3.759318|   -4.809928|
|         479|   -6.017700|   -3.299781|   -3.748267|   -4.814896|
|         480|   -6.001864|   -3.301837|   -3.736959|   -4.819725|
|         481|   -5.986288|   -3.303877|   -3.725499|   -4.824288|
|         482|   -5.971036|   -3.305902|   -3.713998|   -4.828544|
|         483|   -5.956179|   -3.307906|   -3.702373|   -4.832771|
|         484|   -5.941857|   -3.309890|   -3.690537|   -4.837536|
|         485|   -5.927909|   -3.311868|   -3.679069|   -4.842108|
|         486|   -5.914257|   -3.313839|   -3.667718|   -4.846864|
|         487|   -5.901025|   -3.315803|   -3.656598|   -4.851793|
|         488|   -5.888197|   -3.317755|   -3.645736|   -4.856414|
|         489|   -5.875739|   -3.319691|   -3.635137|   -4.860661|
|         490|   -5.863705|   -3.321610|   -3.624873|   -4.864824|
|         491|   -5.852009|   -3.323509|   -3.614879|   -4.868821|
|         492|   -5.840735|   -3.325387|   -3.605246|   -4.872499|
|         493|   -5.829796|   -3.327239|   -3.595904|   -4.875798|
|         494|   -5.819258|   -3.329062|   -3.586848|   -4.878857|
|         495|   -5.809043|   -3.330851|   -3.578084|   -4.881801|
|         496|   -5.799195|   -3.332603|   -3.569677|   -4.884534|
|         497|   -5.789652|   -3.334310|   -3.561567|   -4.886911|
|         498|   -5.780458|   -3.335966|   -3.553797|   -4.888961|
|         499|   -5.771548|   -3.337560|   -3.546311|   -4.890471|
|         500|   -5.762977|   -3.339085|   -3.539163|   -4.891321|
|         501|   -5.754685|   -3.340529|   -3.532302|   -4.891431|
|         502|   -5.746705|   -3.341883|   -3.525757|   -4.890834|
|         503|   -5.738987|   -3.343133|   -3.519483|   -4.889609|
|         504|   -5.731575|   -3.344270|   -3.513521|   -4.887497|
|         505|   -5.724420|   -3.345279|   -3.507825|   -4.884410|
|         506|   -5.717551|   -3.346146|   -3.502420|   -4.880296|
|         507|   -5.710929|   -3.346857|   -3.497271|   -4.875160|
|         508|   -5.704589|   -3.347397|   -3.492406|   -4.869018|
|         509|   -5.698495|   -3.347748|   -3.487791|   -4.861893|
|         510|   -5.692670|   -3.347898|   -3.483443|   -4.853778|
|         511|   -5.687089|   -3.347829|   -3.479333|   -4.844692|
|         512|   -5.681771|   -3.347528|   -3.475476|   -4.834787|
|         513|   -5.676696|   -3.346983|   -3.471845|   -4.824046|
|         514|   -5.671873|   -3.346184|   -3.468445|   -4.812509|
|         515|   -5.667287|   -3.345123|   -3.465255|   -4.800271|
|         516|   -5.662946|   -3.343798|   -3.462272|   -4.787470|
|         517|   -5.658847|   -3.342207|   -3.459484|   -4.774268|
|         518|   -5.654992|   -3.340351|   -3.456886|   -4.760676|
|         519|   -5.651378|   -3.338229|   -3.454468|   -4.746776|
|         520|   -5.648008|   -3.335850|   -3.452225|   -4.732670|
|         521|   -5.644878|   -3.333223|   -3.450155|   -4.718476|
|         522|   -5.641991|   -3.330366|   -3.448257|   -4.704285|
|         523|   -5.639353|   -3.327297|   -3.446520|   -4.690165|
|         524|   -5.636966|   -3.324042|   -3.444944|   -4.676203|
|         525|   -5.634836|   -3.320627|   -3.443541|   -4.662476|
|         526|   -5.632966|   -3.317074|   -3.442310|   -4.649054|
|         527|   -5.631366|   -3.313411|   -3.441265|   -4.635987|
|         528|   -5.630037|   -3.309669|   -3.440420|   -4.623302|
|         529|   -5.628976|   -3.305882|   -3.439787|   -4.611031|
|         530|   -5.628194|   -3.302085|   -3.439224|   -4.599174|
|         531|   -5.627716|   -3.298337|   -3.438938|   -4.586899|
|         532|   -5.627507|   -3.294663|   -3.438896|   -4.575222|
|         533|   -5.627608|   -3.291088|   -3.439131|   -4.564972|
|         534|   -5.628001|   -3.287641|   -3.439645|   -4.555789|
|         535|   -5.628699|   -3.284347|   -3.440449|   -4.547632|
|         536|   -5.629706|   -3.281222|   -3.441557|   -4.540091|
|         537|   -5.631042|   -3.278280|   -3.442961|   -4.534087|
|         538|   -5.632724|   -3.275553|   -3.444575|   -4.528100|
|         539|   -5.634725|   -3.273081|   -3.446548|   -4.523151|
|         540|   -5.637023|   -3.270853|   -3.448845|   -4.518479|
|         541|   -5.639665|   -3.268872|   -3.451482|   -4.514507|
|         542|   -5.642629|   -3.267139|   -3.454444|   -4.510703|
|         543|   -5.645941|   -3.265650|   -3.457737|   -4.507345|
|         544|   -5.649611|   -3.264399|   -3.461358|   -4.504511|
|         545|   -5.653624|   -3.263376|   -3.465299|   -4.501574|
|         546|   -5.657967|   -3.262580|   -3.469547|   -4.499244|
|         547|   -5.662610|   -3.262002|   -3.474086|   -4.496702|
|         548|   -5.667539|   -3.261626|   -3.478906|   -4.494909|
|         549|   -5.672768|   -3.261435|   -3.484004|   -4.492600|
|         550|   -5.678320|   -3.261414|   -3.489365|   -4.491066|
|         551|   -5.684181|   -3.261568|   -3.494964|   -4.489440|
|         552|   -5.690731|   -3.261880|   -3.498567|   -4.487895|
|         553|   -5.698323|   -3.263016|   -3.502463|   -4.486958|
|         554|   -5.705970|   -3.264626|   -3.506452|   -4.486181|
|         555|   -5.714188|   -3.266359|   -3.510723|   -4.485489|
|         556|   -5.722383|   -3.268128|   -3.515044|   -4.485050|
|         557|   -5.730746|   -3.269932|   -3.519474|   -4.484825|
|         558|   -5.739401|   -3.271792|   -3.524022|   -4.484718|
|         559|   -5.748415|   -3.273709|   -3.528713|   -4.484547|
|         560|   -5.757751|   -3.275680|   -3.533536|   -4.484596|
|         561|   -5.767327|   -3.277705|   -3.538460|   -4.484662|
|         562|   -5.777111|   -3.279769|   -3.543458|   -4.484840|
|         563|   -5.787104|   -3.281857|   -3.548520|   -4.485146|
|         564|   -5.797354|   -3.283970|   -3.553656|   -4.485463|
|         565|   -5.807880|   -3.286118|   -3.558878|   -4.485811|
|         566|   -5.818594|   -3.288298|   -3.564162|   -4.486232|
|         567|   -5.829486|   -3.290496|   -3.569498|   -4.486709|
|         568|   -5.840581|   -3.292702|   -3.574885|   -4.487210|
|         569|   -5.851869|   -3.294913|   -3.580316|   -4.487797|
|         570|   -5.863333|   -3.297126|   -3.585782|   -4.488364|
|         571|   -5.874963|   -3.299337|   -3.591275|   -4.488989|
|         572|   -5.886721|   -3.301549|   -3.596795|   -4.489740|
|         573|   -5.898557|   -3.303763|   -3.602345|   -4.490467|
|         574|   -5.910520|   -3.305966|   -3.607944|   -4.491300|
|         575|   -5.922617|   -3.308146|   -3.613599|   -4.492142|
|         576|   -5.934758|   -3.310297|   -3.619303|   -4.493029|
|         577|   -5.946875|   -3.312419|   -3.625047|   -4.493950|
|         578|   -5.959044|   -3.314513|   -3.630879|   -4.494960|
|         579|   -5.971234|   -3.316563|   -3.636845|   -4.496050|
|         580|   -5.983434|   -3.318554|   -3.642999|   -4.497164|
|         581|   -5.995574|   -3.320473|   -3.649385|   -4.498328|
|         582|   -6.007424|   -3.322317|   -3.656012|   -4.499613|
|         583|   -6.018825|   -3.324080|   -3.662870|   -4.500945|
|         584|   -6.029427|   -3.325821|   -3.669933|   -4.502381|
|         585|   -6.038987|   -3.327631|   -3.677182|   -4.503958|
|         586|   -6.047575|   -3.329521|   -3.684591|   -4.505639|
|         587|   -6.055025|   -3.331456|   -3.692139|   -4.507437|
|         588|   -6.060953|   -3.333404|   -3.699755|   -4.509349|
|         589|   -6.064940|   -3.335329|   -3.707327|   -4.511246|
|         590|   -6.066843|   -3.337204|   -3.714774|   -4.513339|
|         591|   -6.066593|   -3.338995|   -3.722053|   -4.515610|
|         592|   -6.064099|   -3.340678|   -3.729150|   -4.517810|
|         593|   -6.059369|   -3.342234|   -3.736049|   -4.520048|
|         594|   -6.052613|   -3.343631|   -3.742733|   -4.522222|
|         595|   -6.044151|   -3.344863|   -3.749241|   -4.524055|
|         596|   -6.034380|   -3.345939|   -3.755634|   -4.525220|
|         597|   -6.023811|   -3.346870|   -3.761930|   -4.525467|
|         598|   -6.013009|   -3.347686|   -3.768113|   -4.524827|
|         599|   -6.002596|   -3.348456|   -3.774186|   -4.523721|
|         600|   -5.993172|   -3.349266|   -3.780143|   -4.522999|
|         601|   -5.985263|   -3.350162|   -3.785970|   -4.523530|
|         602|   -5.979132|   -3.351063|   -3.791503|   -4.525494|
|         603|   -5.974220|   -3.352073|   -3.796448|   -4.529309|
|         604|   -5.969962|   -3.353581|   -3.800523|   -4.535246|
|         605|   -5.966340|   -3.355959|   -3.803541|   -4.543098|
|         606|   -5.963584|   -3.359289|   -3.805251|   -4.551968|
|         607|   -5.961710|   -3.363478|   -3.805463|   -4.561126|
|         608|   -5.960551|   -3.368352|   -3.804259|   -4.569825|
|         609|   -5.959738|   -3.373723|   -3.801880|   -4.577887|
|         610|   -5.958718|   -3.379332|   -3.798582|   -4.584743|
|         611|   -5.955851|   -3.385626|   -3.794618|   -4.591112|
|         612|   -5.952136|   -3.392684|   -3.790412|   -4.596591|
|         613|   -5.948361|   -3.399904|   -3.786347|   -4.601509|
|         614|   -5.944363|   -3.406828|   -3.782608|   -4.605905|
|         615|   -5.940046|   -3.413305|   -3.779226|   -4.609943|
|         616|   -5.935552|   -3.419342|   -3.776104|   -4.613639|
|         617|   -5.931038|   -3.424970|   -3.773000|   -4.616773|
|         618|   -5.926156|   -3.430270|   -3.769483|   -4.619307|
|         619|   -5.920840|   -3.435261|   -3.765446|   -4.621340|
|         620|   -5.915127|   -3.439963|   -3.760806|   -4.622917|
|         621|   -5.909049|   -3.444386|   -3.755578|   -4.624156|
|         622|   -5.902634|   -3.448537|   -3.749833|   -4.625116|
|         623|   -5.895933|   -3.452433|   -3.743655|   -4.625849|
|         624|   -5.889022|   -3.456094|   -3.737145|   -4.626330|
|         625|   -5.881993|   -3.459548|   -3.730411|   -4.626642|
|         626|   -5.874958|   -3.462822|   -3.723558|   -4.626665|
|         627|   -5.868011|   -3.465943|   -3.716683|   -4.626550|
|         628|   -5.861233|   -3.468936|   -3.709866|   -4.626206|
|         629|   -5.854687|   -3.471829|   -3.703175|   -4.625724|
|         630|   -5.848423|   -3.474647|   -3.696661|   -4.625143|
|         631|   -5.842478|   -3.477416|   -3.690364|   -4.624473|
|         632|   -5.836879|   -3.480153|   -3.684317|   -4.623768|
|         633|   -5.831643|   -3.482872|   -3.678543|   -4.623060|
|         634|   -5.826781|   -3.485581|   -3.673064|   -4.622346|
|         635|   -5.822298|   -3.488277|   -3.667897|   -4.621632|
|         636|   -5.818193|   -3.490952|   -3.663058|   -4.620936|
|         637|   -5.814460|   -3.493593|   -3.658556|   -4.620271|
|         638|   -5.811091|   -3.496187|   -3.654402|   -4.619650|
|         639|   -5.808078|   -3.498719|   -3.650601|   -4.619083|
|         640|   -5.805413|   -3.501173|   -3.647156|   -4.618592|
|         641|   -5.803085|   -3.503542|   -3.644066|   -4.618226|
|         642|   -5.801084|   -3.505816|   -3.641325|   -4.617968|
|         643|   -5.799399|   -3.507992|   -3.638925|   -4.617827|
|         644|   -5.798017|   -3.510067|   -3.636852|   -4.617782|
|         645|   -5.796926|   -3.512042|   -3.635091|   -4.617825|
|         646|   -5.796112|   -3.513919|   -3.633625|   -4.617982|
|         647|   -5.795561|   -3.515697|   -3.632434|   -4.618281|
|         648|   -5.795258|   -3.517378|   -3.631499|   -4.618677|
|         649|   -5.795190|   -3.518960|   -3.630802|   -4.619182|
|         650|   -5.795342|   -3.520440|   -3.630324|   -4.619818|
|         651|   -5.795702|   -3.521815|   -3.630051|   -4.620568|
|         652|   -5.796256|   -3.523078|   -3.629970|   -4.621429|
|         653|   -5.796996|   -3.524221|   -3.630075|   -4.622443|
|         654|   -5.797916|   -3.525237|   -3.630362|   -4.623562|
|         655|   -5.799013|   -3.526117|   -3.630832|   -4.624798|
|         656|   -5.800287|   -3.526854|   -3.631489|   -4.626171|
|         657|   -5.801738|   -3.527441|   -3.632343|   -4.627635|
|         658|   -5.803371|   -3.527873|   -3.633403|   -4.629197|
|         659|   -5.805199|   -3.528177|   -3.632809|   -4.630888|
|         660|   -5.807112|   -3.528301|   -3.632076|   -4.632629|
|         661|   -5.809230|   -3.528256|   -3.631612|   -4.634409|
|         662|   -5.811551|   -3.528027|   -3.631410|   -4.636230|
|         663|   -5.814087|   -3.527628|   -3.631478|   -4.638092|
|         664|   -5.816820|   -3.527060|   -3.631809|   -4.639999|
|         665|   -5.819756|   -3.526330|   -3.632408|   -4.641954|
|         666|   -5.822899|   -3.525442|   -3.633280|   -4.643980|
|         667|   -5.826256|   -3.524397|   -3.634433|   -4.646056|
|         668|   -5.829835|   -3.523200|   -3.635873|   -4.648174|
|         669|   -5.833636|   -3.521853|   -3.637599|   -4.650334|
|         670|   -5.837660|   -3.520361|   -3.639609|   -4.652534|
|         671|   -5.841908|   -3.518728|   -3.641887|   -4.654774|
|         672|   -5.846378|   -3.516958|   -3.644408|   -4.657068|
|         673|   -5.851072|   -3.515057|   -3.647200|   -4.659410|
|         674|   -5.855996|   -3.513035|   -3.650262|   -4.661808|
|         675|   -5.861155|   -3.510900|   -3.653596|   -4.664245|
|         676|   -5.866554|   -3.508663|   -3.657206|   -4.666764|
|         677|   -5.872203|   -3.506337|   -3.661100|   -4.669338|
|         678|   -5.878112|   -3.503930|   -3.665289|   -4.671974|
|         679|   -5.884291|   -3.501455|   -3.669784|   -4.674667|
|         680|   -5.890753|   -3.498921|   -3.674598|   -4.677392|
|         681|   -5.897507|   -3.496338|   -3.679746|   -4.680150|
|         682|   -5.904568|   -3.493714|   -3.685240|   -4.682940|
|         683|   -5.911947|   -3.491061|   -3.691093|   -4.685760|
|         684|   -5.919655|   -3.488386|   -3.697319|   -4.688609|
|         685|   -5.927702|   -3.485698|   -3.703927|   -4.691487|
|         686|   -5.936094|   -3.483007|   -3.710926|   -4.694392|
|         687|   -5.944839|   -3.480322|   -3.718322|   -4.697325|
|         688|   -5.953945|   -3.477654|   -3.726119|   -4.700286|
|         689|   -5.963417|   -3.475012|   -3.734321|   -4.703270|
|         690|   -5.973260|   -3.472407|   -3.742930|   -4.706274|
|         691|   -5.983476|   -3.469847|   -3.751946|   -4.709295|
|         692|   -5.994068|   -3.467344|   -3.761368|   -4.712331|
|         693|   -6.005037|   -3.464908|   -3.771193|   -4.715381|
|         694|   -6.016383|   -3.462546|   -3.781414|   -4.718439|
|         695|   -6.028106|   -3.460267|   -3.792031|   -4.721506|
|         696|   -6.040203|   -3.458080|   -3.803045|   -4.724610|
|         697|   -6.052667|   -3.455992|   -3.814448|   -4.727737|
|         698|   -6.065492|   -3.454010|   -3.826233|   -4.730949|
|         699|   -6.078664|   -3.452139|   -3.838394|   -4.734232|
|         700|   -6.092164|   -3.450386|   -3.850918|   -4.737580|
|         701|   -6.105969|   -3.448757|   -3.863797|   -4.740975|
|         702|   -6.120044|   -3.447259|   -3.877012|   -4.744391|
|         703|   -6.134346|   -3.445898|   -3.890546|   -4.747823|
|         704|   -6.148826|   -3.444678|   -3.904379|   -4.751292|
|         705|   -6.163398|   -3.443600|   -3.918461|   -4.754752|
|         706|   -6.177984|   -3.442666|   -3.932748|   -4.758178|
|         707|   -6.192481|   -3.441875|   -3.947178|   -4.761547|
|         708|   -6.206777|   -3.441225|   -3.961610|   -4.764836|
|         709|   -6.220716|   -3.440717|   -3.976010|   -4.768022|
|         710|   -6.234123|   -3.440353|   -3.990225|   -4.771179|
|         711|   -6.246826|   -3.440130|   -4.004109|   -4.774416|
|         712|   -6.258632|   -3.440049|   -4.017488|   -4.777617|
|         713|   -6.269342|   -3.440111|   -4.030170|   -4.780852|
|         714|   -6.278757|   -3.440313|   -4.041946|   -4.784189|
|         715|   -6.286696|   -3.440656|   -4.052596|   -4.787447|
|         716|   -6.292995|   -3.441136|   -4.061893|   -4.790760|
|         717|   -6.297524|   -3.441753|   -4.069622|   -4.794182|
|         718|   -6.300206|   -3.442504|   -4.075595|   -4.797494|
|         719|   -6.300997|   -3.443388|   -4.079659|   -4.800628|
|         720|   -6.299924|   -3.444405|   -4.081715|   -4.803537|
|         721|   -6.297064|   -3.445555|   -4.081731|   -4.806325|
|         722|   -6.292518|   -3.446840|   -4.079727|   -4.809420|
|         723|   -6.286447|   -3.448263|   -4.075794|   -4.812696|
|         724|   -6.279019|   -3.449824|   -4.070075|   -4.816435|
|         725|   -6.270412|   -3.451524|   -4.062741|   -4.820471|
|         726|   -6.260810|   -3.453367|   -4.054010|   -4.824867|
|         727|   -6.250353|   -3.455361|   -4.044073|   -4.829695|
|         728|   -6.239253|   -3.457504|   -4.033143|   -4.834790|
|         729|   -6.227681|   -3.459790|   -4.021451|   -4.840199|
|         730|   -6.215691|   -3.462210|   -4.009131|   -4.846148|
|         731|   -6.203403|   -3.464756|   -3.996384|   -4.852831|
|         732|   -6.190860|   -3.467420|   -3.983338|   -4.860156|
|         733|   -6.178117|   -3.470187|   -3.970124|   -4.868077|
|         734|   -6.165215|   -3.473041|   -3.956856|   -4.876712|
|         735|   -6.152176|   -3.475960|   -3.943622|   -4.885936|
|         736|   -6.139024|   -3.478919|   -3.930513|   -4.895542|
|         737|   -6.125768|   -3.481884|   -3.917595|   -4.905739|
|         738|   -6.112421|   -3.484820|   -3.904927|   -4.915651|
|         739|   -6.098992|   -3.487684|   -3.892555|   -4.924597|
|         740|   -6.085491|   -3.490432|   -3.880515|   -4.931937|
|         741|   -6.071934|   -3.493019|   -3.868832|   -4.937310|
|         742|   -6.058343|   -3.495390|   -3.857096|   -4.940029|
|         743|   -6.044744|   -3.497540|   -3.845538|   -4.939809|
|         744|   -6.031259|   -3.499443|   -3.834119|   -4.936839|
|         745|   -6.017944|   -3.501067|   -3.823372|   -4.932107|
|         746|   -6.004691|   -3.502391|   -3.813361|   -4.927051|
|         747|   -5.991644|   -3.503417|   -3.804006|   -4.923040|
|         748|   -5.978927|   -3.504182|   -3.795268|   -4.921164|
|         749|   -5.966639|   -3.504741|   -3.787085|   -4.922325|
|         750|   -5.954891|   -3.505169|   -3.779380|   -4.926979|
|         751|   -5.943780|   -3.505570|   -3.772071|   -4.935260|
|         752|   -5.933406|   -3.506063|   -3.765083|   -4.947292|
|         753|   -5.923837|   -3.506773|   -3.758379|   -4.962526|
|         754|   -5.915123|   -3.507791|   -3.751930|   -4.980128|
|         755|   -5.907270|   -3.509172|   -3.745710|   -4.998933|
|         756|   -5.900242|   -3.510931|   -3.739693|   -5.017674|
|         757|   -5.893960|   -3.513105|   -3.733918|   -5.035357|
|         758|   -5.888342|   -3.515683|   -3.728388|   -5.051327|
|         759|   -5.883292|   -3.518590|   -3.723081|   -5.065004|
|         760|   -5.878698|   -3.521734|   -3.717984|   -5.076459|
|         761|   -5.874445|   -3.525039|   -3.713092|   -5.085618|
|         762|   -5.870432|   -3.528311|   -3.708434|   -5.091682|
|         763|   -5.866538|   -3.531582|   -3.703978|   -5.096365|
|         764|   -5.862737|   -3.534816|   -3.699752|   -5.099188|
|         765|   -5.859023|   -3.537857|   -3.695788|   -5.100156|
|         766|   -5.855392|   -3.540604|   -3.692104|   -5.099603|
|         767|   -5.851848|   -3.543024|   -3.688705|   -5.097457|
|         768|   -5.848389|   -3.545097|   -3.685587|   -5.093946|
|         769|   -5.845025|   -3.546823|   -3.682747|   -5.089281|
|         770|   -5.841770|   -3.548210|   -3.680179|   -5.083566|
|         771|   -5.838641|   -3.549266|   -3.677878|   -5.077007|
|         772|   -5.835655|   -3.550004|   -3.675836|   -5.069657|
|         773|   -5.832827|   -3.550436|   -3.674045|   -5.061672|
|         774|   -5.830173|   -3.550577|   -3.672497|   -5.053268|
|         775|   -5.827707|   -3.550440|   -3.671189|   -5.044578|
|         776|   -5.825441|   -3.550040|   -3.670112|   -5.035452|
|         777|   -5.823387|   -3.549390|   -3.669262|   -5.025957|
|         778|   -5.821551|   -3.548502|   -3.668632|   -5.016153|
|         779|   -5.819940|   -3.547387|   -3.668215|   -5.006270|
|         780|   -5.818559|   -3.546061|   -3.668006|   -4.996393|
|         781|   -5.817415|   -3.544536|   -3.668000|   -4.986388|
|         782|   -5.816510|   -3.542826|   -3.668189|   -4.976233|
|         783|   -5.815850|   -3.540946|   -3.668566|   -4.965995|
|         784|   -5.815437|   -3.538911|   -3.669125|   -4.955708|
|         785|   -5.815277|   -3.536735|   -3.669860|   -4.945405|
|         786|   -5.815374|   -3.534429|   -3.670765|   -4.935154|
|         787|   -5.815729|   -3.532006|   -3.671835|   -4.924953|
|         788|   -5.816343|   -3.529479|   -3.673061|   -4.914823|
|         789|   -5.817224|   -3.526860|   -3.674333|   -4.904790|
|         790|   -5.818376|   -3.524165|   -3.675776|   -4.894967|
|         791|   -5.819760|   -3.521402|   -3.677349|   -4.885303|
|         792|   -5.821407|   -3.518580|   -3.679059|   -4.875800|
|         793|   -5.823320|   -3.515709|   -3.680789|   -4.866478|
|         794|   -5.825514|   -3.512803|   -3.682632|   -4.857356|
|         795|   -5.827953|   -3.509874|   -3.684600|   -4.848460|
|         796|   -5.830658|   -3.506929|   -3.686690|   -4.839807|
|         797|   -5.833631|   -3.503978|   -3.688898|   -4.831399|
|         798|   -5.836872|   -3.501032|   -3.691221|   -4.823249|
|         799|   -5.840394|   -3.498101|   -3.693664|   -4.815374|
|         800|   -5.844204|   -3.495191|   -3.696231|   -4.807768|
|         801|   -5.848303|   -3.492311|   -3.698922|   -4.800442|
|         802|   -5.852694|   -3.489465|   -3.701738|   -4.793399|
|         803|   -5.857367|   -3.486664|   -3.704672|   -4.786655|
|         804|   -5.862325|   -3.483915|   -3.707722|   -4.780207|
|         805|   -5.867566|   -3.481226|   -3.710885|   -4.774060|
|         806|   -5.873112|   -3.478604|   -3.714067|   -4.768226|
|         807|   -5.878979|   -3.476064|   -3.717353|   -4.762714|
|         808|   -5.885179|   -3.473614|   -3.720284|   -4.757547|
|         809|   -5.891974|   -3.471300|   -3.721906|   -4.752785|
|         810|   -5.899209|   -3.469288|   -3.724111|   -4.748409|
|         811|   -5.906353|   -3.467452|   -3.726337|   -4.744396|
|         812|   -5.914047|   -3.465726|   -3.728853|   -4.740724|
|         813|   -5.922016|   -3.464116|   -3.731569|   -4.737369|
|         814|   -5.930358|   -3.462620|   -3.734555|   -4.734316|
|         815|   -5.939015|   -3.461245|   -3.737773|   -4.731547|
|         816|   -5.948007|   -3.459995|   -3.741218|   -4.729048|
|         817|   -5.957340|   -3.458877|   -3.744883|   -4.726813|
|         818|   -5.967000|   -3.457895|   -3.748757|   -4.724831|
|         819|   -5.977004|   -3.457047|   -3.752845|   -4.723086|
|         820|   -5.987359|   -3.456331|   -3.757152|   -4.721574|
|         821|   -5.998098|   -3.455733|   -3.761697|   -4.720285|
|         822|   -6.009199|   -3.455241|   -3.766488|   -4.719208|
|         823|   -6.020620|   -3.454853|   -3.771512|   -4.718342|
|         824|   -6.032336|   -3.454567|   -3.776754|   -4.717692|
|         825|   -6.044335|   -3.454392|   -3.782196|   -4.717237|
|         826|   -6.056654|   -3.454330|   -3.787834|   -4.716977|
|         827|   -6.069290|   -3.454376|   -3.793677|   -4.716901|
|         828|   -6.082273|   -3.454522|   -3.799736|   -4.717002|
|         829|   -6.095536|   -3.454762|   -3.806007|   -4.717272|
|         830|   -6.109031|   -3.455098|   -3.812462|   -4.717709|
|         831|   -6.122720|   -3.455531|   -3.819079|   -4.718302|
|         832|   -6.136604|   -3.456066|   -3.825842|   -4.719047|
|         833|   -6.150673|   -3.456701|   -3.832755|   -4.719942|
|         834|   -6.164888|   -3.457436|   -3.839817|   -4.720983|
|         835|   -6.179194|   -3.458272|   -3.847007|   -4.722167|
|         836|   -6.193527|   -3.459208|   -3.854300|   -4.723493|
|         837|   -6.207832|   -3.460242|   -3.861680|   -4.724960|
|         838|   -6.221987|   -3.461374|   -3.869118|   -4.726567|
|         839|   -6.235834|   -3.462610|   -3.876568|   -4.728334|
|         840|   -6.249265|   -3.463951|   -3.883984|   -4.730260|
|         841|   -6.262135|   -3.465396|   -3.891316|   -4.732353|
|         842|   -6.274242|   -3.466947|   -3.898521|   -4.734623|
|         843|   -6.285386|   -3.468606|   -3.905538|   -4.737077|
|         844|   -6.295309|   -3.470382|   -3.912285|   -4.739768|
|         845|   -6.303795|   -3.472288|   -3.918672|   -4.742670|
|         846|   -6.310621|   -3.474342|   -3.924615|   -4.745786|
|         847|   -6.315651|   -3.476552|   -3.930054|   -4.749077|
|         848|   -6.318740|   -3.478933|   -3.934951|   -4.752514|
|         849|   -6.319785|   -3.481497|   -3.939278|   -4.756051|
|         850|   -6.318798|   -3.484233|   -3.943030|   -4.759670|
|         851|   -6.315778|   -3.487118|   -3.946224|   -4.763483|
|         852|   -6.310779|   -3.490112|   -3.948902|   -4.767577|
|         853|   -6.303841|   -3.493175|   -3.951119|   -4.772090|
|         854|   -6.295012|   -3.496259|   -3.952955|   -4.777046|
|         855|   -6.284394|   -3.499322|   -3.954474|   -4.782405|
|         856|   -6.272200|   -3.502337|   -3.955721|   -4.788040|
|         857|   -6.258796|   -3.505298|   -3.956699|   -4.793799|
|         858|   -6.244661|   -3.508222|   -3.957366|   -4.799518|
|         859|   -6.230273|   -3.511133|   -3.957630|   -4.805071|
|         860|   -6.215988|   -3.514062|   -3.957363|   -4.810411|
|         861|   -6.201996|   -3.517029|   -3.956434|   -4.815559|
|         862|   -6.188334|   -3.520041|   -3.954716|   -4.820611|
|         863|   -6.174942|   -3.523095|   -3.952118|   -4.825777|
|         864|   -6.161724|   -3.526183|   -3.948605|   -4.831066|
|         865|   -6.148609|   -3.529300|   -3.944212|   -4.836496|
|         866|   -6.135578|   -3.532444|   -3.939024|   -4.842130|
|         867|   -6.122662|   -3.535619|   -3.933163|   -4.847866|
|         868|   -6.109945|   -3.538833|   -3.926753|   -4.853659|
|         869|   -6.097512|   -3.542094|   -3.919946|   -4.859469|
|         870|   -6.085469|   -3.545411|   -3.912884|   -4.865304|
|         871|   -6.073872|   -3.548788|   -3.905674|   -4.871286|
|         872|   -6.062766|   -3.552232|   -3.898407|   -4.877305|
|         873|   -6.052172|   -3.555744|   -3.891152|   -4.883326|
|         874|   -6.042101|   -3.559325|   -3.883968|   -4.889268|
|         875|   -6.032552|   -3.562973|   -3.876900|   -4.895116|
|         876|   -6.023519|   -3.566683|   -3.869985|   -4.900876|
|         877|   -6.014993|   -3.570451|   -3.863256|   -4.906565|
|         878|   -6.006960|   -3.574268|   -3.856740|   -4.912139|
|         879|   -5.999407|   -3.578126|   -3.850457|   -4.917690|
|         880|   -5.992319|   -3.582013|   -3.844426|   -4.923171|
|         881|   -5.985681|   -3.585919|   -3.838661|   -4.928523|
|         882|   -5.979476|   -3.589834|   -3.833173|   -4.933733|
|         883|   -5.973688|   -3.593746|   -3.827968|   -4.938871|
|         884|   -5.968301|   -3.597647|   -3.823047|   -4.943860|
|         885|   -5.963297|   -3.601527|   -3.818411|   -4.948687|
|         886|   -5.958659|   -3.605379|   -3.814054|   -4.953354|
|         887|   -5.954370|   -3.609196|   -3.809968|   -4.958039|
|         888|   -5.950411|   -3.612972|   -3.806144|   -4.962925|
|         889|   -5.946768|   -3.616702|   -3.802571|   -4.967746|
|         890|   -5.943423|   -3.620382|   -3.799237|   -4.972484|
|         891|   -5.940363|   -3.624007|   -3.796132|   -4.977121|
|         892|   -5.937576|   -3.627574|   -3.793245|   -4.981625|
|         893|   -5.935049|   -3.631076|   -3.790568|   -4.985953|
|         894|   -5.932772|   -3.634507|   -3.788095|   -4.990114|
|         895|   -5.930734|   -3.637860|   -3.785820|   -4.994106|
|         896|   -5.928929|   -3.641126|   -3.783741|   -4.997926|
|         897|   -5.927349|   -3.644296|   -3.781857|   -5.001609|
|         898|   -5.925991|   -3.647360|   -3.780169|   -5.005165|
|         899|   -5.924850|   -3.650308|   -3.778680|   -5.008551|
|         900|   -5.923924|   -3.653130|   -3.777392|   -5.011771|
|         901|   -5.923209|   -3.655816|   -3.776312|   -5.015133|
|         902|   -5.922705|   -3.658356|   -3.775442|   -5.018372|
|         903|   -5.922410|   -3.660743|   -3.774787|   -5.021453|
|         904|   -5.922323|   -3.662968|   -3.774351|   -5.024621|
|         905|   -5.922443|   -3.665027|   -3.774138|   -5.027791|
|         906|   -5.922770|   -3.666912|   -3.774149|   -5.030820|
|         907|   -5.923303|   -3.668620|   -3.774387|   -5.033755|
|         908|   -5.924043|   -3.670148|   -3.774853|   -5.036641|
|         909|   -5.924990|   -3.671496|   -3.775448|   -5.039531|
|         910|   -5.926123|   -3.672683|   -3.774746|   -5.042469|
|         911|   -5.927356|   -3.673664|   -3.774174|   -5.045411|
|         912|   -5.928885|   -3.674456|   -3.773858|   -5.048232|
|         913|   -5.930587|   -3.675031|   -3.773740|   -5.050940|
|         914|   -5.932521|   -3.675403|   -3.773863|   -5.053526|
|         915|   -5.934655|   -3.675570|   -3.774205|   -5.056131|
|         916|   -5.937009|   -3.675539|   -3.774783|   -5.058681|
|         917|   -5.939587|   -3.675312|   -3.775604|   -5.061137|
|         918|   -5.942396|   -3.674894|   -3.776680|   -5.063507|
|         919|   -5.945441|   -3.674290|   -3.778018|   -5.065796|
|         920|   -5.948726|   -3.673504|   -3.779622|   -5.068009|
|         921|   -5.952253|   -3.672546|   -3.781470|   -5.070152|
|         922|   -5.956024|   -3.671423|   -3.783592|   -5.072227|
|         923|   -5.960047|   -3.670146|   -3.785993|   -5.074241|
|         924|   -5.964323|   -3.668726|   -3.788675|   -5.076198|
|         925|   -5.968857|   -3.667177|   -3.791642|   -5.078101|
|         926|   -5.973651|   -3.665512|   -3.794896|   -5.079957|
|         927|   -5.978708|   -3.663742|   -3.798439|   -5.081770|
|         928|   -5.984031|   -3.661878|   -3.802273|   -5.083543|
|         929|   -5.989622|   -3.659931|   -3.806401|   -5.085281|
|         930|   -5.995483|   -3.657909|   -3.810826|   -5.086988|
|         931|   -6.001618|   -3.655821|   -3.815549|   -5.088667|
|         932|   -6.008029|   -3.653672|   -3.820574|   -5.090323|
|         933|   -6.014718|   -3.651471|   -3.825903|   -5.091959|
|         934|   -6.021689|   -3.649225|   -3.831538|   -5.093582|
|         935|   -6.028947|   -3.646941|   -3.837484|   -5.095196|
|         936|   -6.036494|   -3.644627|   -3.843744|   -5.096808|
|         937|   -6.044337|   -3.642290|   -3.850323|   -5.098427|
|         938|   -6.052481|   -3.639940|   -3.857228|   -5.100062|
|         939|   -6.060932|   -3.637582|   -3.864466|   -5.101727|
|         940|   -6.069699|   -3.635226|   -3.872047|   -5.103435|
|         941|   -6.078790|   -3.632880|   -3.879980|   -5.105203|
|         942|   -6.088213|   -3.630552|   -3.888278|   -5.107051|
|         943|   -6.097978|   -3.628248|   -3.896952|   -5.109001|
|         944|   -6.108096|   -3.625976|   -3.906014|   -5.111076|
|         945|   -6.118577|   -3.623742|   -3.915479|   -5.113303|
|         946|   -6.129433|   -3.621556|   -3.925358|   -5.115709|
|         947|   -6.140674|   -3.619421|   -3.935665|   -5.118319|
|         948|   -6.152315|   -3.617343|   -3.946408|   -5.121180|
|         949|   -6.164366|   -3.615328|   -3.957604|   -5.124307|
|         950|   -6.176837|   -3.613381|   -3.969265|   -5.127708|
|         951|   -6.189739|   -3.611506|   -3.981399|   -5.131394|
|         952|   -6.203079|   -3.609707|   -3.994014|   -5.135367|
|         953|   -6.216864|   -3.607989|   -4.007111|   -5.139618|
|         954|   -6.231097|   -3.606357|   -4.020692|   -5.144130|
|         955|   -6.245778|   -3.604815|   -4.034751|   -5.148867|
|         956|   -6.260899|   -3.603367|   -4.049276|   -5.153779|
|         957|   -6.276447|   -3.602015|   -4.064244|   -5.158796|
|         958|   -6.292396|   -3.600765|   -4.079625|   -5.163963|
|         959|   -6.308709|   -3.599617|   -4.095374|   -5.169280|
|         960|   -6.325331|   -3.598573|   -4.111409|   -5.174760|
|         961|   -6.342180|   -3.597634|   -4.127652|   -5.180304|
[...]
|        7578|   -7.500974|   -5.155420|   -5.376719|   -5.625233|
|        7579|   -7.507525|   -5.152988|   -5.383676|   -5.625270|
|        7580|   -7.514382|   -5.150540|   -5.390979|   -5.625307|
|        7581|   -7.521550|   -5.148083|   -5.398639|   -5.625343|
|        7582|   -7.529035|   -5.145626|   -5.406666|   -5.625378|
|        7583|   -7.536842|   -5.143174|   -5.415070|   -5.625413|
|        7584|   -7.544977|   -5.140733|   -5.423862|   -5.625447|
|        7585|   -7.553447|   -5.138311|   -5.433054|   -5.625479|
|        7586|   -7.562256|   -5.135912|   -5.442660|   -5.625511|
|        7587|   -7.571410|   -5.133543|   -5.452693|   -5.625542|
|        7588|   -7.580913|   -5.131208|   -5.463167|   -5.625573|
|        7589|   -7.590772|   -5.128913|   -5.474098|   -5.625602|
|        7590|   -7.600989|   -5.126663|   -5.485503|   -5.625630|
|        7591|   -7.611568|   -5.124461|   -5.497397|   -5.625657|
|        7592|   -7.622512|   -5.122313|   -5.509800|   -5.625683|
|        7593|   -7.633820|   -5.120221|   -5.522729|   -5.625707|
|        7594|   -7.645492|   -5.118191|   -5.536204|   -5.625731|
|        7595|   -7.657523|   -5.116224|   -5.550245|   -5.625753|
|        7596|   -7.669907|   -5.114326|   -5.564871|   -5.625774|
|        7597|   -7.682632|   -5.112497|   -5.580102|   -5.625794|
|        7598|   -7.695685|   -5.110742|   -5.595957|   -5.625812|
|        7599|   -7.709042|   -5.109064|   -5.612451|   -5.625828|
|        7600|   -7.722676|   -5.107463|   -5.629599|   -5.625843|
|        7601|   -7.736548|   -5.105943|   -5.647411|   -5.625857|
|        7602|   -7.750610|   -5.104507|   -5.665888|   -5.625868|
|        7603|   -7.764801|   -5.103154|   -5.685024|   -5.625878|
|        7604|   -7.779046|   -5.101889|   -5.704797|   -5.625887|
|        7605|   -7.793251|   -5.100711|   -5.725169|   -5.625893|
|        7606|   -7.807306|   -5.099623|   -5.746073|   -5.625898|
|        7607|   -7.821076|   -5.098625|   -5.767409|   -5.625900|
|        7608|   -7.834408|   -5.097720|   -5.789030|   -5.625901|
|        7609|   -7.847125|   -5.096908|   -5.810731|   -5.625900|
|        7610|   -7.859031|   -5.096190|   -5.832234|   -5.625896|
|        7611|   -7.869916|   -5.095567|   -5.853173|   -5.625890|
|        7612|   -7.879559|   -5.095039|   -5.873082|   -5.625882|
|        7613|   -7.887745|   -5.094608|   -5.891402|   -5.625872|
|        7614|   -7.894269|   -5.094273|   -5.907490|   -5.625860|
|        7615|   -7.898960|   -5.094036|   -5.920663|   -5.625845|
|        7616|   -7.901687|   -5.093895|   -5.930269|   -5.625846|
|        7617|   -7.902372|   -5.093852|   -5.935776|   -5.625849|
|        7618|   -7.901000|   -5.093907|   -5.936856|   -5.625852|
|        7619|   -7.897619|   -5.094060|   -5.933453|   -5.625853|
|        7620|   -7.892334|   -5.094309|   -5.925792|   -5.625852|
|        7621|   -7.885301|   -5.094656|   -5.914334|   -5.625957|
|        7622|   -7.876709|   -5.095100|   -5.899695|   -5.626108|
|        7623|   -7.866771|   -5.095639|   -5.882555|   -5.626261|
|        7624|   -7.855705|   -5.096275|   -5.863578|   -5.626413|
|        7625|   -7.843727|   -5.097005|   -5.843360|   -5.626565|
|        7626|   -7.831042|   -5.097830|   -5.822406|   -5.626718|
|        7627|   -7.817836|   -5.098748|   -5.801118|   -5.626870|
|        7628|   -7.804274|   -5.099758|   -5.779809|   -5.627022|
|        7629|   -7.790498|   -5.100860|   -5.758712|   -5.627173|
|        7630|   -7.776632|   -5.102051|   -5.737994|   -5.627324|
|        7631|   -7.762777|   -5.103331|   -5.717772|   -5.627475|
|        7632|   -7.749016|   -5.104697|   -5.698126|   -5.627624|
|        7633|   -7.735418|   -5.106149|   -5.679104|   -5.627773|
|        7634|   -7.722036|   -5.107685|   -5.660734|   -5.627921|
|        7635|   -7.708913|   -5.109302|   -5.643029|   -5.628067|
|        7636|   -7.696083|   -5.110998|   -5.625989|   -5.628212|
|        7637|   -7.683571|   -5.112772|   -5.609607|   -5.628356|
|        7638|   -7.671394|   -5.114620|   -5.593872|   -5.628499|
|        7639|   -7.659566|   -5.116540|   -5.578768|   -5.628640|
|        7640|   -7.648095|   -5.118530|   -5.564277|   -5.628779|
|        7641|   -7.636987|   -5.120586|   -5.550380|   -5.628917|
|        7642|   -7.626245|   -5.122705|   -5.537057|   -5.629053|
|        7643|   -7.615869|   -5.124884|   -5.524289|   -5.629187|
|        7644|   -7.605857|   -5.127119|   -5.512057|   -5.629319|
|        7645|   -7.596207|   -5.129406|   -5.500342|   -5.629449|
|        7646|   -7.586915|   -5.131742|   -5.489126|   -5.629576|
|        7647|   -7.577977|   -5.134122|   -5.478390|   -5.629702|
|        7648|   -7.569388|   -5.136542|   -5.468120|   -5.629825|
|        7649|   -7.561144|   -5.138996|   -5.458299|   -5.629946|
|        7650|   -7.553237|   -5.141481|   -5.448913|   -5.630064|
|        7651|   -7.545663|   -5.143990|   -5.439946|   -5.630180|
|        7652|   -7.538417|   -5.146519|   -5.431387|   -5.630293|
|        7653|   -7.531492|   -5.149062|   -5.423223|   -5.630404|
|        7654|   -7.524884|   -5.151613|   -5.415442|   -5.630512|
|        7655|   -7.518586|   -5.154165|   -5.408034|   -5.630618|
|        7656|   -7.512593|   -5.156714|   -5.400988|   -5.630720|
|        7657|   -7.506901|   -5.159251|   -5.394294|   -5.630820|
|        7658|   -7.501505|   -5.161772|   -5.387945|   -5.630917|
|        7659|   -7.496399|   -5.164267|   -5.381931|   -5.631012|
|        7660|   -7.491580|   -5.166732|   -5.376244|   -5.631103|
|        7661|   -7.487044|   -5.169158|   -5.370878|   -5.631191|
|        7662|   -7.482786|   -5.171539|   -5.365826|   -5.631277|
|        7663|   -7.478802|   -5.173867|   -5.361082|   -5.631359|
|        7664|   -7.475089|   -5.176134|   -5.356639|   -5.631439|
|        7665|   -7.471644|   -5.178334|   -5.352494|   -5.631516|
|        7666|   -7.468464|   -5.180459|   -5.348639|   -5.631589|
|        7667|   -7.465545|   -5.182502|   -5.345072|   -5.631660|
|        7668|   -7.462886|   -5.184455|   -5.341788|   -5.631727|
|        7669|   -7.460483|   -5.186313|   -5.338783|   -5.631792|
|        7670|   -7.458335|   -5.188068|   -5.336054|   -5.631853|
|        7671|   -7.456440|   -5.189713|   -5.333598|   -5.631912|
|        7672|   -7.454795|   -5.191243|   -5.331411|   -5.631967|
|        7673|   -7.453400|   -5.192651|   -5.329493|   -5.632020|
|        7674|   -7.452253|   -5.193933|   -5.327839|   -5.632070|
|        7675|   -7.451352|   -5.195082|   -5.326449|   -5.632116|
|        7676|   -7.450697|   -5.196095|   -5.325322|   -5.632160|
|        7677|   -7.450287|   -5.196967|   -5.324454|   -5.632200|
|        7678|   -7.450121|   -5.197696|   -5.323847|   -5.632238|
|        7679|   -7.450199|   -5.198278|   -5.323498|   -5.632273|
|        7680|   -7.450521|   -5.198712|   -5.323408|   -5.632305|
|        7681|   -7.451087|   -5.198996|   -5.323577|   -5.632334|
|        7682|   -7.451896|   -5.199130|   -5.324004|   -5.632360|
|        7683|   -7.452950|   -5.199113|   -5.324690|   -5.632384|
|        7684|   -7.454248|   -5.198947|   -5.325635|   -5.632404|
|        7685|   -7.455791|   -5.198632|   -5.326840|   -5.632422|
|        7686|   -7.457581|   -5.198171|   -5.328308|   -5.632437|
|        7687|   -7.459619|   -5.197565|   -5.330038|   -5.632450|
|        7688|   -7.461904|   -5.196820|   -5.332033|   -5.632460|
|        7689|   -7.464440|   -5.195937|   -5.334295|   -5.632467|
|        7690|   -7.467227|   -5.194922|   -5.336826|   -5.632471|
|        7691|   -7.470267|   -5.193779|   -5.339628|   -5.632473|
|        7692|   -7.473562|   -5.192514|   -5.342706|   -5.632472|
|        7693|   -7.477115|   -5.191133|   -5.346061|   -5.632469|
|        7694|   -7.480927|   -5.189642|   -5.349699|   -5.632463|
|        7695|   -7.485001|   -5.188047|   -5.353621|   -5.632455|
|        7696|   -7.489339|   -5.186355|   -5.357834|   -5.632445|
|        7697|   -7.493944|   -5.184573|   -5.362342|   -5.632431|
|        7698|   -7.498818|   -5.182709|   -5.367149|   -5.632416|
|        7699|   -7.503966|   -5.180769|   -5.372262|   -5.632398|
|        7700|   -7.509389|   -5.178761|   -5.377685|   -5.632378|
|        7701|   -7.515092|   -5.176693|   -5.383427|   -5.632355|
|        7702|   -7.521076|   -5.174572|   -5.389494|   -5.632330|
|        7703|   -7.527346|   -5.172406|   -5.395892|   -5.632303|
|        7704|   -7.533906|   -5.170201|   -5.402631|   -5.632274|
|        7705|   -7.540757|   -5.167966|   -5.409718|   -5.632242|
|        7706|   -7.547904|   -5.165707|   -5.417164|   -5.632209|
|        7707|   -7.555351|   -5.163431|   -5.424977|   -5.632173|
|        7708|   -7.563099|   -5.161147|   -5.433169|   -5.632135|
|        7709|   -7.571152|   -5.158859|   -5.441750|   -5.632094|
|        7710|   -7.579513|   -5.156575|   -5.450732|   -5.632052|
|        7711|   -7.588183|   -5.154301|   -5.460129|   -5.632008|
|        7712|   -7.597165|   -5.152044|   -5.469953|   -5.631961|
|        7713|   -7.606459|   -5.149809|   -5.480220|   -5.631913|
|        7714|   -7.616064|   -5.147601|   -5.490943|   -5.631862|
|        7715|   -7.625981|   -5.145427|   -5.502140|   -5.631809|
|        7716|   -7.636205|   -5.143292|   -5.513827|   -5.631755|
|        7717|   -7.646733|   -5.141201|   -5.526022|   -5.631698|
|        7718|   -7.657558|   -5.139159|   -5.538744|   -5.631639|
|        7719|   -7.668671|   -5.137169|   -5.552012|   -5.631579|
|        7720|   -7.680059|   -5.135238|   -5.565844|   -5.631516|
|        7721|   -7.691706|   -5.133368|   -5.580262|   -5.631452|
|        7722|   -7.703591|   -5.131563|   -5.595284|   -5.631385|
|        7723|   -7.715687|   -5.129829|   -5.610930|   -5.631317|
|        7724|   -7.727963|   -5.128167|   -5.627216|   -5.631247|
|        7725|   -7.740377|   -5.126582|   -5.644157|   -5.631174|
|        7726|   -7.752880|   -5.125077|   -5.661763|   -5.631101|
|        7727|   -7.765415|   -5.123654|   -5.680040|   -5.631025|
|        7728|   -7.777910|   -5.122317|   -5.698981|   -5.630947|
|        7729|   -7.790284|   -5.121067|   -5.718570|   -5.630868|
|        7730|   -7.802441|   -5.119908|   -5.738770|   -5.630786|
|        7731|   -7.814275|   -5.118842|   -5.759524|   -5.630703|
|        7732|   -7.825661|   -5.117871|   -5.780738|   -5.630619|
|        7733|   -7.836467|   -5.116997|   -5.802278|   -5.630532|
|        7734|   -7.846547|   -5.116222|   -5.823953|   -5.630444|
|        7735|   -7.855752|   -5.115548|   -5.845500|   -5.630354|
|        7736|   -7.863928|   -5.114975|   -5.866575|   -5.630262|
|        7737|   -7.870926|   -5.114506|   -5.886735|   -5.630168|
|        7738|   -7.876609|   -5.114141|   -5.905441|   -5.630073|
|        7739|   -7.880860|   -5.113883|   -5.922066|   -5.629977|
|        7740|   -7.883589|   -5.113732|   -5.935932|   -5.629878|
|        7741|   -7.884737|   -5.113688|   -5.946375|   -5.629778|
|        7742|   -7.884286|   -5.113753|   -5.952827|   -5.629677|
|        7743|   -7.882252|   -5.113927|   -5.954909|   -5.629574|
|        7744|   -7.878694|   -5.114210|   -5.952504|   -5.629469|
|        7745|   -7.873700|   -5.114603|   -5.945774|   -5.629363|
|        7746|   -7.867386|   -5.115107|   -5.935135|   -5.629255|
|        7747|   -7.859889|   -5.115720|   -5.921176|   -5.629146|
|        7748|   -7.851356|   -5.116444|   -5.904570|   -5.629036|
|        7749|   -7.841940|   -5.117277|   -5.885987|   -5.628925|
|        7750|   -7.831791|   -5.118220|   -5.866043|   -5.628812|
|        7751|   -7.821052|   -5.119271|   -5.845263|   -5.628697|
|        7752|   -7.809859|   -5.120431|   -5.824071|   -5.628582|
|        7753|   -7.798331|   -5.121697|   -5.802800|   -5.628465|
|        7754|   -7.786578|   -5.123070|   -5.781698|   -5.628348|
|        7755|   -7.774694|   -5.124548|   -5.760946|   -5.628229|
|        7756|   -7.762761|   -5.126129|   -5.740672|   -5.628109|
|        7757|   -7.750848|   -5.127813|   -5.720961|   -5.627989|
|        7758|   -7.739014|   -5.129596|   -5.701869|   -5.627867|
|        7759|   -7.727308|   -5.131478|   -5.683428|   -5.627745|
|        7760|   -7.715769|   -5.133455|   -5.665653|   -5.627622|
|        7761|   -7.704431|   -5.135527|   -5.648547|   -5.627498|
|        7762|   -7.693319|   -5.137689|   -5.632105|   -5.627374|
|        7763|   -7.682454|   -5.139939|   -5.616317|   -5.627249|
|        7764|   -7.671852|   -5.142274|   -5.601166|   -5.627123|
|        7765|   -7.661525|   -5.144691|   -5.586636|   -5.626997|
|        7766|   -7.651483|   -5.147185|   -5.572708|   -5.626871|
|        7767|   -7.641732|   -5.149754|   -5.559362|   -5.626745|
|        7768|   -7.632276|   -5.152392|   -5.546579|   -5.626618|
|        7769|   -7.623118|   -5.155095|   -5.534339|   -5.626492|
|        7770|   -7.614258|   -5.157858|   -5.522623|   -5.626365|
|        7771|   -7.605698|   -5.160677|   -5.511413|   -5.626239|
|        7772|   -7.597435|   -5.163546|   -5.500691|   -5.626112|
|        7773|   -7.589469|   -5.166459|   -5.490441|   -5.625986|
|        7774|   -7.581797|   -5.169410|   -5.480647|   -5.625861|
|        7775|   -7.574416|   -5.172393|   -5.471293|   -5.625735|
|        7776|   -7.567325|   -5.175401|   -5.462365|   -5.625611|
|        7777|   -7.560519|   -5.178428|   -5.453850|   -5.625487|
|        7778|   -7.553996|   -5.181466|   -5.445735|   -5.625364|
|        7779|   -7.547752|   -5.184507|   -5.438008|   -5.625241|
|        7780|   -7.541784|   -5.187545|   -5.430659|   -5.625120|
|        7781|   -7.536089|   -5.190570|   -5.423676|   -5.625000|
|        7782|   -7.530664|   -5.193575|   -5.417050|   -5.624881|
|        7783|   -7.525505|   -5.196551|   -5.410772|   -5.624763|
|        7784|   -7.520610|   -5.199490|   -5.404833|   -5.624646|
|        7785|   -7.515975|   -5.202382|   -5.399226|   -5.624531|
|        7786|   -7.511598|   -5.205220|   -5.393942|   -5.624418|
|        7787|   -7.507476|   -5.207994|   -5.388976|   -5.624306|
|        7788|   -7.503607|   -5.210694|   -5.384320|   -5.624196|
|        7789|   -7.499989|   -5.213313|   -5.379969|   -5.624088|
|        7790|   -7.496618|   -5.215841|   -5.375917|   -5.623982|
|        7791|   -7.493494|   -5.218270|   -5.372158|   -5.623878|
|        7792|   -7.490614|   -5.220590|   -5.368689|   -5.623777|
|        7793|   -7.487977|   -5.222794|   -5.365505|   -5.623691|
|        7794|   -7.485581|   -5.224873|   -5.362602|   -5.623611|
|        7795|   -7.483424|   -5.226820|   -5.359976|   -5.623583|
|        7796|   -7.481506|   -5.228628|   -5.357624|   -5.623628|
|        7797|   -7.479825|   -5.230291|   -5.355543|   -5.623685|
|        7798|   -7.478381|   -5.231801|   -5.353730|   -5.623743|
|        7799|   -7.477172|   -5.233153|   -5.352184|   -5.623801|
|        7800|   -7.476199|   -5.234344|   -5.350901|   -5.623858|
|        7801|   -7.475461|   -5.235368|   -5.349881|   -5.623914|
|        7802|   -7.474957|   -5.236222|   -5.349122|   -5.623969|
|        7803|   -7.474688|   -5.236904|   -5.348622|   -5.624024|
|        7804|   -7.474653|   -5.237413|   -5.348381|   -5.624077|
|        7805|   -7.474854|   -5.237746|   -5.348398|   -5.624129|
|        7806|   -7.475289|   -5.237905|   -5.348672|   -5.624181|
|        7807|   -7.475961|   -5.237890|   -5.349204|   -5.624231|
|        7808|   -7.476869|   -5.237703|   -5.349994|   -5.624281|
|        7809|   -7.478016|   -5.237347|   -5.351041|   -5.624330|
|        7810|   -7.479401|   -5.236824|   -5.352348|   -5.624378|
|        7811|   -7.481026|   -5.236140|   -5.353914|   -5.624425|
|        7812|   -7.482893|   -5.235298|   -5.355742|   -5.624472|
|        7813|   -7.485003|   -5.234303|   -5.357832|   -5.624518|
|        7814|   -7.487358|   -5.233161|   -5.360187|   -5.624563|
|        7815|   -7.489960|   -5.231879|   -5.362808|   -5.624607|
|        7816|   -7.492812|   -5.230463|   -5.365699|   -5.624651|
|        7817|   -7.495916|   -5.228922|   -5.368861|   -5.624694|
|        7818|   -7.499274|   -5.227262|   -5.372298|   -5.624736|
|        7819|   -7.502889|   -5.225492|   -5.376013|   -5.624777|
|        7820|   -7.506765|   -5.223619|   -5.380011|   -5.624818|
|        7821|   -7.510905|   -5.221653|   -5.384294|   -5.624858|
|        7822|   -7.515311|   -5.219602|   -5.388869|   -5.624897|
|        7823|   -7.519988|   -5.217473|   -5.393739|   -5.624936|
|        7824|   -7.524940|   -5.215276|   -5.398910|   -5.624974|
|        7825|   -7.530170|   -5.213019|   -5.404388|   -5.625011|
|        7826|   -7.535683|   -5.210711|   -5.410179|   -5.625047|
|        7827|   -7.541483|   -5.208359|   -5.416290|   -5.625083|
|        7828|   -7.547576|   -5.205971|   -5.422728|   -5.625118|
|        7829|   -7.553965|   -5.203556|   -5.429501|   -5.625152|
|        7830|   -7.560657|   -5.201121|   -5.436617|   -5.625186|
|        7831|   -7.567656|   -5.198673|   -5.444085|   -5.625218|
|        7832|   -7.574968|   -5.196221|   -5.451914|   -5.625250|
|        7833|   -7.582598|   -5.193769|   -5.460116|   -5.625281|
|        7834|   -7.590552|   -5.191326|   -5.468701|   -5.625311|
|        7835|   -7.598835|   -5.188897|   -5.477680|   -5.625340|
|        7836|   -7.607454|   -5.186489|   -5.487067|   -5.625368|
|        7837|   -7.616412|   -5.184107|   -5.496874|   -5.625396|
|        7838|   -7.625716|   -5.181756|   -5.507115|   -5.625422|
|        7839|   -7.635371|   -5.179443|   -5.517806|   -5.625447|
|        7840|   -7.645379|   -5.177172|   -5.528962|   -5.625472|
|        7841|   -7.655746|   -5.174947|   -5.540601|   -5.625495|
|        7842|   -7.666473|   -5.172773|   -5.552738|   -5.625517|
|        7843|   -7.677562|   -5.170655|   -5.565394|   -5.625538|
|        7844|   -7.689012|   -5.168595|   -5.578586|   -5.625558|
|        7845|   -7.700820|   -5.166598|   -5.592335|   -5.625576|
|        7846|   -7.712981|   -5.164667|   -5.606659|   -5.625594|
|        7847|   -7.725486|   -5.162805|   -5.621580|   -5.625610|
|        7848|   -7.738321|   -5.161016|   -5.637115|   -5.625624|
|        7849|   -7.751468|   -5.159301|   -5.653284|   -5.625637|
|        7850|   -7.764901|   -5.157664|   -5.670101|   -5.625649|
|        7851|   -7.778588|   -5.156107|   -5.687578|   -5.625660|
|        7852|   -7.792484|   -5.154631|   -5.705722|   -5.625668|
|        7853|   -7.806535|   -5.153240|   -5.724531|   -5.625675|
|        7854|   -7.820674|   -5.151935|   -5.743992|   -5.625681|
|        7855|   -7.834816|   -5.150718|   -5.764076|   -5.625685|
|        7856|   -7.848859|   -5.149589|   -5.784731|   -5.625687|
|        7857|   -7.862682|   -5.148552|   -5.805875|   -5.625688|
|        7858|   -7.876143|   -5.147606|   -5.827389|   -5.625686|
|        7859|   -7.889077|   -5.146754|   -5.849097|   -5.625683|
|        7860|   -7.901299|   -5.145995|   -5.870761|   -5.625678|
|        7861|   -7.912610|   -5.145332|   -5.892060|   -5.625671|
|        7862|   -7.922794|   -5.144764|   -5.912582|   -5.625662|
|        7863|   -7.931638|   -5.144292|   -5.931812|   -5.625662|
|        7864|   -7.938932|   -5.143918|   -5.949144|   -5.625668|
|        7865|   -7.944492|   -5.143641|   -5.963910|   -5.625674|
|        7866|   -7.948166|   -5.143462|   -5.975430|   -5.625678|
|        7867|   -7.949853|   -5.143380|   -5.983095|   -5.625681|
|        7868|   -7.949506|   -5.143397|   -5.986464|   -5.625710|
|        7869|   -7.947142|   -5.143511|   -5.985336|   -5.625843|
|        7870|   -7.942836|   -5.143724|   -5.979794|   -5.625975|
|        7871|   -7.936721|   -5.144035|   -5.970194|   -5.626108|
|        7872|   -7.928961|   -5.144442|   -5.957076|   -5.626242|
|        7873|   -7.919761|   -5.144947|   -5.941109|   -5.626376|
|        7874|   -7.909330|   -5.145549|   -5.922971|   -5.626511|
|        7875|   -7.897887|   -5.146246|   -5.903300|   -5.626645|
