scsub> Executing:  'cd /home/hem1dev/Codes/SU2_Github_Mark_Test/SU2/Venturi'


WARNING: CONV_CRITERIA is deprecated. SU2 will choose the criteria automatically based on the CONV_FIELD.
That is, RESIDUAL for any RMS_* BGS_* value, and CAUCHY for coefficients such as DRAG etc.


-------------------------------------------------------------------------
|    ___ _   _ ___                                                      |
|   / __| | | |_  )   Release 7.1.1 "Blackbird"                         |
|   \__ \ |_| |/ /                                                      |
|   |___/\___//___|   Suite (Computational Fluid Dynamics Code)         |
|                                                                       |
-------------------------------------------------------------------------
| SU2 Project Website: https://su2code.github.io                        |
|                                                                       |
| The SU2 Project is maintained by the SU2 Foundation                   |
| (http://su2foundation.org)                                            |
-------------------------------------------------------------------------
| Copyright 2012-2021, SU2 Contributors                                 |
|                                                                       |
| SU2 is free software; you can redistribute it and/or                  |
| modify it under the terms of the GNU Lesser General Public            |
| License as published by the Free Software Foundation; either          |
| version 2.1 of the License, or (at your option) any later version.    |
|                                                                       |
| SU2 is distributed in the hope that it will be useful,                |
| but WITHOUT ANY WARRANTY; without even the implied warranty of        |
| MERCHANTABILITY or FITNESS FOR A PARTICULAR PURPOSE. See the GNU      |
| Lesser General Public License for more details.                       |
|                                                                       |
| You should have received a copy of the GNU Lesser General Public      |
| License along with SU2. If not, see <http://www.gnu.org/licenses/>.   |
-------------------------------------------------------------------------


WARNING: CONV_CRITERIA is deprecated. SU2 will choose the criteria automatically based on the CONV_FIELD.
That is, RESIDUAL for any RMS_* BGS_* value, and CAUCHY for coefficients such as DRAG etc.


Parsing config file for zone 0


WARNING: CONV_CRITERIA is deprecated. SU2 will choose the criteria automatically based on the CONV_FIELD.
That is, RESIDUAL for any RMS_* BGS_* value, and CAUCHY for coefficients such as DRAG etc.


----------------- Physical Case Definition ( Zone 0 ) -------------------
Incompressible RANS equations.
Turbulence model: Menter's SST
Hybrid RANS/LES: No Hybrid RANS/LES
No restart solution, use the values at infinity (freestream).
Dimensional simulation.
The reference area is 1 m^2.
The semi-span will be computed using the max y(3D) value.
The reference length is 1 m.
Input mesh file name: c6_cms_venturi.cgns

--------------- Space Numerical Integration ( Zone 0 ) ------------------
Flux difference splitting (FDS) upwind scheme for the flow inviscid terms.
Second order integration in space, with slope limiter.
No slope-limiting method. 
Average of gradients with correction (viscous flow terms).
Average of gradients with correction (viscous turbulence terms).
Gradient for upwind reconstruction: inverse-distance weighted Least-Squares.
Gradient for viscous and source terms: inverse-distance weighted Least-Squares.

--------------- Time Numerical Integration  ( Zone 0 ) ------------------
Local time stepping (steady state simulation).
Euler implicit method for the flow equations.
FGMRES is used for solving the linear system.
Using a ILU(0) preconditioning.
Convergence criteria of the linear solver: 1e-08.
Max number of linear iterations: 20.
No CFL adaptation.
Courant-Friedrichs-Lewy number:      100
Euler implicit time integration for the turbulence model.

------------------ Convergence Criteria  ( Zone 0 ) ---------------------
Maximum number of solver subiterations: 10000.
Begin convergence monitoring at iteration 10.
Residual minimum value: 1e-10.
Cauchy series min. value: 1e-06.
Number of Cauchy elements: 100.
Begin windowed time average at iteration 0.

-------------------- Output Information ( Zone 0 ) ----------------------
Writing solution files every 500 iterations.
Writing the convergence history file every 1 inner iterations.
Writing the screen convergence history every 1 inner iterations.
The tabular file format is CSV (.csv).
Convergence history file name: history_test.
Forces breakdown file name: forces_breakdown.dat.
Surface file name: surface_flow_venturi_mixturedensity_30kW_fine_test.
Volume file name: flow_venturi_mixturedensity_30kW_fine_test.
Restart file name: restart_venturi_mixturedensity_30kW_fine_test.dat.

------------- Config File Boundary Information ( Zone 0 ) ---------------
+-----------------------------------------------------------------------+
|                        Marker Type|                        Marker Name|
+-----------------------------------------------------------------------+
|                     Symmetry plane|                               axis|
+-----------------------------------------------------------------------+
|                     Inlet boundary|                          gas_inlet|
|                                   |                          air_inlet|
+-----------------------------------------------------------------------+
|                    Outlet boundary|                             outlet|
+-----------------------------------------------------------------------+
|                     Heat flux wall|            wall-component1-surface|
+-----------------------------------------------------------------------+

-------------------- Output Preprocessing ( Zone 0 ) --------------------
Screen output fields: INNER_ITER, RMS_PRESSURE, RMS_VELOCITY-X, RMS_VELOCITY-Y, RMS_PASSIVE_SCALAR
History output group(s): RMS_RES, AERO_COEFF, FLOW_COEFF
Convergence field(s): RMS_PRESSURE, RMS_VELOCITY-X, RMS_VELOCITY-Y, RMS_TKE
Warning: No (valid) fields chosen for time convergence monitoring. Time convergence monitoring inactive.
  Info: Ignoring the following volume output fields/groups:
  SOURCE, LOOKUP
Volume output fields: DENSITY, SOLUTION, PRIMITIVE, RESIDUAL, COORDINATES

------------------- Geometry Preprocessing ( Zone 0 ) -------------------
Reading the CGNS file: c6_cms_venturi.cgns.
CGNS file contains 1 database(s).
Database 1, Base:  cell dimension of 2, physical dimension of 2.
1 total zone(s).
Zone 1, Zone: 292948 total vertices, 295883 total elements.
Loading CoordinateX values into linear partitions.
Loading CoordinateY values into linear partitions.
Distributing connectivity across all ranks.
Number of connectivity sections is 6.
Section gas_inlet contains 51 elements of type Mixed.
Section air_inlet contains 150 elements of type Mixed.
Section outlet contains 157 elements of type Mixed.
Section axis contains 1721 elements of type Mixed.
Section component1-surface contains 290183 elements of type Mixed.
Section wall-component1-surface contains 3621 elements of type Mixed.
Loading surface section gas_inlet from file.
Loading surface section air_inlet from file.
Loading surface section outlet from file.
Loading surface section axis from file.
Loading volume section component1-surface from file.
Loading surface section wall-component1-surface from file.
Two dimensional problem.
292948 grid points before partitioning.
290183 volume elements before partitioning.
5 surface markers.
51 boundary elements in index 0 (Marker = gas_inlet).
150 boundary elements in index 1 (Marker = air_inlet).
157 boundary elements in index 2 (Marker = outlet).
1721 boundary elements in index 3 (Marker = axis).
3621 boundary elements in index 4 (Marker = wall-component1-surface).
Executing the partitioning functions.
Building the graph adjacency structure.
Calling ParMETIS... graph partitioning complete (8746 edge cuts).
Distributing ParMETIS coloring.
Rebalancing vertices.
Rebalancing volume element connectivity.
Rebalancing markers and surface elements.
310564 vertices including ghost points. 
298925 interior elements including halo cells. 
176 triangles.
298749 quadrilaterals.
Establishing MPI communication patterns.
Setting point connectivity.
Renumbering points (Reverse Cuthill McKee Ordering).
Recomputing point connectivity.
Setting element connectivity.
Checking the numerical grid orientation.
All volume elements are correctly orientend.
All surface elements are correctly orientend.
Identifying edges and vertices.
Setting the control volume structure.
Area of the computational grid: 0.00281152.
Searching for the closest normal neighbors to the surfaces.
Storing a mapping from global to local point index.
Compute the surface curvature.
Max K: 25766.3. Mean K: 66.0693. Standard deviation K: 1007.76.
Checking for periodicity.
Computing mesh quality statistics for the dual control volumes.
+--------------------------------------------------------------+
|           Mesh Quality Metric|        Minimum|        Maximum|
+--------------------------------------------------------------+
|    Orthogonality Angle (deg.)|        45.2115|             90|
|     CV Face Area Aspect Ratio|              1|        10.3208|
|           CV Sub-Volume Ratio|              1|        9.85984|
+--------------------------------------------------------------+
Finding max control volume width.
Communicating number of neighbors.
Wetted area = 0 m.
Area projection in the x-plane = 0 m, y-plane = 0 m.
Max. coordinate in the x-direction = -1e+10 m, y-direction = -1e+10 m.
Min. coordinate in the x-direction = 1e+10 m, y-direction = 1e+10 m.
Checking if Euler & Symmetry markers are straight/plane:
Boundary marker axis is a single straight.
Computing wall distances.

-------------------- Solver Preprocessing ( Zone 0 ) --------------------
Incompressible flow: rho_ref, vel_ref, temp_ref, p_ref
are set to 1.0 in order to perform a dimensional calculation.
Force coefficients computed using initial values.
The reference area for force coeffs. is 1 m^2.
The reference length for force coeffs. is 1 m.
The pressure is decomposed into thermodynamic and dynamic components.
The initial value of the dynamic pressure is 0.
Mach number: 0, computed using fluid speed of sound.
For external flows, the initial state is imposed at the far-field.
Angle of attack (deg): 0, computed using the initial velocity.
Side slip angle (deg): 0, computed using the initial velocity.
Reynolds number per meter: 65290.8, computed using initial values.
Reynolds number is a byproduct of inputs only (not used internally).
SI units only. The grid should be dimensional (meters).
Energy equation is active and coupled for variable density.

-- Models:
+------------------------------------------------------------------------------+
|          Viscosity Model|        Conductivity Model|              Fluid Model|
+------------------------------------------------------------------------------+
|       CONSTANT_VISCOSITY|                  CONSTANT|+------------------------------------------------------------------------------+
-- Fluid properties:
+------------------------------------------------------------------------------+
|                  Name|    Dim. value|    Ref. value|      Unit|Non-dim. value|
+------------------------------------------------------------------------------+
|             Viscosity|     1.118e-05|             1|   N.s/m^2|     1.118e-05|
+------------------------------------------------------------------------------+
|       Molecular Cond.|         0.072|             1|   W/m^2.K|         0.072|
+------------------------------------------------------------------------------+
-- Initial and free-stream conditions:
+------------------------------------------------------------------------------+
|                  Name|    Dim. value|    Ref. value|      Unit|Non-dim. value|
+------------------------------------------------------------------------------+
|      Dynamic Pressure|             0|             1|        Pa|             0|
|        Total Pressure|      0.585985|             1|        Pa|      0.585985|
|               Density|       1.17197|             1|    kg/m^3|       1.17197|
|           Temperature|           300|             1|         K|           300|
|            Velocity-X|             1|             1|       m/s|             1|
|            Velocity-Y|             0|             1|       m/s|             0|
|    Velocity Magnitude|             1|             1|       m/s|             1|
+------------------------------------------------------------------------------+
|             Viscosity|     1.795e-05|             1|   N.s/m^2|     1.795e-05|
|          Conductivity|             -|             1|   W/m^2.K|             -|
|     Turb. Kin. Energy|       0.00375|             1|   m^2/s^2|       0.00375|
|     Spec. Dissipation|       24.4841|             1|       1/s|       24.4841|
+------------------------------------------------------------------------------+
|           Mach Number|             -|             -|         -|             0|
|       Reynolds Number|             -|             -|         -|       65290.8|
+------------------------------------------------------------------------------+
Initialize Jacobian structure (Navier-Stokes). MG level: 0.
Initialize Jacobian structure (passive scalar model).
Initialize Jacobian structure (SST model).

------------------- Numerics Preprocessing ( Zone 0 ) -------------------

----------------- Integration Preprocessing ( Zone 0 ) ------------------

------------------- Iteration Preprocessing ( Zone 0 ) ------------------
Euler/Navier-Stokes/RANS fluid iteration.

------------------------------ Begin Solver -----------------------------

Simulation Run using the Single-zone Driver
Initializing passive scalar (initial condition).
initialization = 1 1
+----------------------------------------------------------------+
|  Inner_Iter|      rms[P]|      rms[U]|      rms[V]|      rms[c]|
+----------------------------------------------------------------+
|           0|   -5.116953|   -4.847332|   -4.364756|   -5.710014|
|           1|   -4.986664|   -4.844342|   -4.071097|   -5.228501|
|           2|   -5.397912|   -4.543874|   -4.030100|   -5.335502|
|           3|   -5.504254|   -4.736086|   -4.076735|   -5.471068|
|           4|   -5.655709|   -4.832053|   -4.095553|   -5.522869|
|           5|   -5.628521|   -4.890813|   -4.330221|   -5.548290|
|           6|   -5.728511|   -4.859052|   -4.567050|   -5.577568|
|           7|   -5.768854|   -4.803265|   -4.706550|   -5.628017|
|           8|   -5.800315|   -4.764661|   -4.691484|   -5.690207|
|           9|   -5.808394|   -4.744324|   -4.588951|   -5.741743|
|          10|   -5.782138|   -4.732260|   -4.425757|   -5.767585|
|          11|   -5.754005|   -4.720710|   -4.321395|   -5.770184|
|          12|   -5.755093|   -4.708718|   -4.284457|   -5.758293|
|          13|   -5.783110|   -4.695917|   -4.288741|   -5.741342|
|          14|   -5.821328|   -4.680058|   -4.315588|   -5.726166|
|          15|   -5.857393|   -4.659061|   -4.350718|   -5.715805|
|          16|   -5.886796|   -4.633480|   -4.380310|   -5.710125|
|          17|   -5.908629|   -4.606013|   -4.394133|   -5.707452|
|          18|   -5.923202|   -4.579339|   -4.389964|   -5.705834|
|          19|   -5.932291|   -4.554864|   -4.373604|   -5.703807|
|          20|   -5.938880|   -4.532817|   -4.353508|   -5.700620|
|          21|   -5.945814|   -4.512848|   -4.336148|   -5.696153|
|          22|   -5.954637|   -4.494528|   -4.324538|   -5.690673|
|          23|   -5.965414|   -4.477528|   -4.318531|   -5.684602|
|          24|   -5.977309|   -4.461622|   -4.316718|   -5.678348|
|          25|   -5.989324|   -4.446632|   -4.316917|   -5.672198|
|          26|   -6.000764|   -4.432395|   -4.316673|   -5.666282|
|          27|   -6.011318|   -4.418769|   -4.315413|   -5.660596|
|          28|   -6.020978|   -4.405680|   -4.313394|   -5.655098|
|          29|   -6.029871|   -4.393074|   -4.310928|   -5.649732|
|          30|   -6.038180|   -4.380902|   -4.308495|   -5.644458|
|          31|   -6.046047|   -4.369089|   -4.306462|   -5.639260|
|          32|   -6.053555|   -4.357558|   -4.304999|   -5.634137|
|          33|   -6.060690|   -4.346237|   -4.304037|   -5.629073|
|          34|   -6.067396|   -4.335097|   -4.303270|   -5.624061|
|          35|   -6.073642|   -4.324161|   -4.302404|   -5.619114|
|          36|   -6.079408|   -4.313479|   -4.301045|   -5.614278|
|          37|   -6.084707|   -4.303064|   -4.298119|   -5.609609|
|          38|   -6.089632|   -4.292899|   -4.292725|   -5.605158|
|          39|   -6.094320|   -4.283011|   -4.286989|   -5.600953|
|          40|   -6.098704|   -4.273408|   -4.281679|   -5.596975|
|          41|   -6.102690|   -4.264062|   -4.277201|   -5.593168|
|          42|   -6.106283|   -4.254896|   -4.273872|   -5.589502|
|          43|   -6.109584|   -4.245724|   -4.270779|   -5.585981|
|          44|   -6.112718|   -4.236413|   -4.268688|   -5.582696|
|          45|   -6.115584|   -4.226939|   -4.266979|   -5.579709|
|          46|   -6.118175|   -4.217535|   -4.266663|   -5.576995|
|          47|   -6.120399|   -4.208627|   -4.267574|   -5.574489|
|          48|   -6.122272|   -4.200590|   -4.268405|   -5.572099|
|          49|   -6.124019|   -4.193741|   -4.269424|   -5.569777|
|          50|   -6.125687|   -4.188272|   -4.271068|   -5.567481|
|          51|   -6.127131|   -4.184181|   -4.273238|   -5.565244|
|          52|   -6.128418|   -4.181309|   -4.275967|   -5.563122|
|          53|   -6.129531|   -4.179414|   -4.279343|   -5.561192|
|          54|   -6.130434|   -4.178239|   -4.283362|   -5.559454|
|          55|   -6.131032|   -4.177614|   -4.287829|   -5.557804|
|          56|   -6.131229|   -4.177459|   -4.292399|   -5.556025|
|          57|   -6.131047|   -4.177725|   -4.296700|   -5.553856|
|          58|   -6.130604|   -4.178332|   -4.300350|   -5.551081|
|          59|   -6.129624|   -4.179081|   -4.302960|   -5.547607|
|          60|   -6.127627|   -4.179627|   -4.304024|   -5.543457|
|          61|   -6.124318|   -4.179495|   -4.303429|   -5.538701|
|          62|   -6.119587|   -4.178224|   -4.301444|   -5.533405|
|          63|   -6.113438|   -4.175529|   -4.298255|   -5.527637|
|          64|   -6.106017|   -4.171382|   -4.293918|   -5.521477|
|          65|   -6.097494|   -4.166019|   -4.288302|   -5.514982|
|          66|   -6.087877|   -4.159839|   -4.281063|   -5.508171|
|          67|   -6.077032|   -4.153236|   -4.271719|   -5.501005|
|          68|   -6.064768|   -4.146491|   -4.259812|   -5.493357|
|          69|   -6.050793|   -4.139582|   -4.244989|   -5.485045|
|          70|   -6.034919|   -4.132282|   -4.227231|   -5.475851|
|          71|   -6.016952|   -4.124431|   -4.206715|   -5.465693|
|          72|   -5.997746|   -4.116398|   -4.183865|   -5.454744|
|          73|   -5.977003|   -4.108184|   -4.159161|   -5.443890|
|          74|   -5.955323|   -4.100089|   -4.134288|   -5.434724|
|          75|   -5.935401|   -4.092257|   -4.112093|   -5.428845|
|          76|   -5.920233|   -4.084438|   -4.095783|   -5.427183|
|          77|   -5.911495|   -4.076389|   -4.087130|   -5.429564|
|          78|   -5.908560|   -4.068600|   -4.087503|   -5.434744|
|          79|   -5.910099|   -4.061934|   -4.094971|   -5.441142|
|          80|   -5.915385|   -4.057165|   -4.104581|   -5.447702|
|          81|   -5.922428|   -4.054129|   -4.114412|   -5.454278|
|          82|   -5.930465|   -4.051953|   -4.124245|   -5.460801|
|          83|   -5.938458|   -4.049408|   -4.134604|   -5.466963|
|          84|   -5.944657|   -4.045776|   -4.144621|   -5.472468|
|          85|   -5.947865|   -4.041328|   -4.153022|   -5.476592|
|          86|   -5.947107|   -4.034924|   -4.159688|   -5.478607|
|          87|   -5.942106|   -4.026537|   -4.164362|   -5.477872|
|          88|   -5.932906|   -4.017440|   -4.164899|   -5.474056|
|          89|   -5.921049|   -4.007534|   -4.157764|   -5.467079|
|          90|   -5.907778|   -3.997039|   -4.140936|   -5.456959|
|          91|   -5.890538|   -3.986897|   -4.115622|   -5.444787|
|          92|   -5.869362|   -3.978183|   -4.086771|   -5.432357|
|          93|   -5.845821|   -3.971431|   -4.059799|   -5.421813|
|          94|   -5.823517|   -3.966768|   -4.038794|   -5.414543|
|          95|   -5.806866|   -3.963875|   -4.025805|   -5.410772|
|          96|   -5.797122|   -3.962283|   -4.020189|   -5.410170|
|          97|   -5.792718|   -3.961318|   -4.019497|   -5.412253|
|          98|   -5.792923|   -3.960422|   -4.021811|   -5.416383|
|          99|   -5.797085|   -3.959755|   -4.026348|   -5.422084|
|         100|   -5.805099|   -3.959460|   -4.032555|   -5.428783|
|         101|   -5.815972|   -3.959700|   -4.040977|   -5.436062|
|         102|   -5.828966|   -3.960894|   -4.051572|   -5.443199|
|         103|   -5.842897|   -3.963655|   -4.063508|   -5.449870|
|         104|   -5.858305|   -3.967784|   -4.075669|   -5.456100|
|         105|   -5.873410|   -3.972948|   -4.087889|   -5.461499|
|         106|   -5.888238|   -3.979141|   -4.100042|   -5.465446|
|         107|   -5.901997|   -3.986250|   -4.110893|   -5.467147|
|         108|   -5.913240|   -3.994267|   -4.118478|   -5.466245|
|         109|   -5.922091|   -4.002573|   -4.121936|   -5.462585|
|         110|   -5.925750|   -4.010736|   -4.122401|   -5.456772|
|         111|   -5.922787|   -4.018235|   -4.121053|   -5.449555|
|         112|   -5.912060|   -4.024693|   -4.118645|   -5.442715|
|         113|   -5.902505|   -4.029522|   -4.115671|   -5.436165|
|         114|   -5.892017|   -4.032068|   -4.113469|   -5.430284|
|         115|   -5.881056|   -4.033263|   -4.112076|   -5.425338|
|         116|   -5.871586|   -4.033891|   -4.112221|   -5.421623|
|         117|   -5.863801|   -4.034474|   -4.114207|   -5.419185|
|         118|   -5.857370|   -4.035587|   -4.117627|   -5.418360|
|         119|   -5.853453|   -4.037818|   -4.122260|   -5.419165|
|         120|   -5.851302|   -4.041313|   -4.127445|   -5.421651|
|         121|   -5.851378|   -4.045825|   -4.132814|   -5.425674|
|         122|   -5.852853|   -4.051368|   -4.137622|   -5.431192|
|         123|   -5.856160|   -4.057756|   -4.140841|   -5.437923|
|         124|   -5.860774|   -4.064852|   -4.142040|   -5.445352|
|         125|   -5.865356|   -4.072436|   -4.141326|   -5.453066|
|         126|   -5.870040|   -4.080179|   -4.138795|   -5.460915|
|         127|   -5.874453|   -4.087611|   -4.135061|   -5.468731|
|         128|   -5.878381|   -4.094560|   -4.130251|   -5.476277|
|         129|   -5.882171|   -4.100790|   -4.124948|   -5.483423|
|         130|   -5.885358|   -4.106327|   -4.118325|   -5.490385|
|         131|   -5.892437|   -4.110396|   -4.111527|   -5.496343|
|         132|   -5.900124|   -4.113945|   -4.105838|   -5.501241|
|         133|   -5.907353|   -4.117142|   -4.101323|   -5.505235|
|         134|   -5.913495|   -4.119886|   -4.098086|   -5.508492|
|         135|   -5.918871|   -4.122406|   -4.096132|   -5.511183|
|         136|   -5.923521|   -4.124697|   -4.095350|   -5.513401|
|         137|   -5.927675|   -4.126769|   -4.095608|   -5.515364|
|         138|   -5.931162|   -4.128564|   -4.096678|   -5.517087|
|         139|   -5.934528|   -4.130015|   -4.098259|   -5.518693|
|         140|   -5.937698|   -4.131204|   -4.100055|   -5.520031|
|         141|   -5.940786|   -4.132281|   -4.101932|   -5.521109|
|         142|   -5.943473|   -4.133264|   -4.103619|   -5.521916|
|         143|   -5.945359|   -4.134123|   -4.105290|   -5.522571|
|         144|   -5.946817|   -4.134945|   -4.107003|   -5.523105|
|         145|   -5.947622|   -4.135578|   -4.108494|   -5.523494|
|         146|   -5.948431|   -4.136457|   -4.109488|   -5.523796|
|         147|   -5.949505|   -4.137644|   -4.110070|   -5.524013|
|         148|   -5.950686|   -4.138878|   -4.110260|   -5.524179|
|         149|   -5.951700|   -4.140221|   -4.110066|   -5.524375|
|         150|   -5.953366|   -4.141672|   -4.109531|   -5.524742|
|         151|   -5.955872|   -4.143397|   -4.108823|   -5.525300|
|         152|   -5.958530|   -4.145458|   -4.108328|   -5.525934|
|         153|   -5.961939|   -4.147690|   -4.108064|   -5.526453|
|         154|   -5.965824|   -4.149854|   -4.107578|   -5.526804|
|         155|   -5.969780|   -4.151921|   -4.106827|   -5.526884|
|         156|   -5.973615|   -4.154112|   -4.106208|   -5.526805|
|         157|   -5.976705|   -4.156369|   -4.105713|   -5.526576|
|         158|   -5.978678|   -4.158503|   -4.105388|   -5.526248|
|         159|   -5.980141|   -4.160346|   -4.105301|   -5.525817|
|         160|   -5.981844|   -4.162174|   -4.105455|   -5.525290|
|         161|   -5.983487|   -4.164130|   -4.105890|   -5.524536|
|         162|   -5.985269|   -4.165879|   -4.106548|   -5.523642|
|         163|   -5.986754|   -4.167413|   -4.107284|   -5.522625|
|         164|   -5.987687|   -4.168656|   -4.108217|   -5.521487|
|         165|   -5.988748|   -4.169663|   -4.109009|   -5.520201|
|         166|   -5.989561|   -4.170405|   -4.109582|   -5.518688|
|         167|   -5.989903|   -4.170670|   -4.110002|   -5.516899|
|         168|   -5.989944|   -4.170583|   -4.110049|   -5.514833|
|         169|   -5.989426|   -4.169897|   -4.109661|   -5.512514|
|         170|   -5.988503|   -4.168523|   -4.108676|   -5.510046|
|         171|   -5.987035|   -4.166292|   -4.106882|   -5.507498|
|         172|   -5.985380|   -4.163412|   -4.104637|   -5.504931|
|         173|   -5.983476|   -4.160103|   -4.102093|   -5.502364|
|         174|   -5.982228|   -4.156488|   -4.099446|   -5.499782|
|         175|   -5.981439|   -4.152963|   -4.096787|   -5.497141|
|         176|   -5.981103|   -4.149337|   -4.094064|   -5.494444|
|         177|   -5.981043|   -4.145282|   -4.091362|   -5.491711|
|         178|   -5.980800|   -4.140765|   -4.088512|   -5.488974|
|         179|   -5.981131|   -4.135887|   -4.085680|   -5.486282|
|         180|   -5.981831|   -4.130545|   -4.082850|   -5.483646|
|         181|   -5.982973|   -4.124940|   -4.080000|   -5.481059|
|         182|   -5.984164|   -4.119368|   -4.077040|   -5.478484|
|         183|   -5.985868|   -4.113904|   -4.073689|   -5.475891|
|         184|   -5.987634|   -4.108335|   -4.069994|   -5.473242|
|         185|   -5.989566|   -4.102789|   -4.065984|   -5.470567|
|         186|   -5.991469|   -4.097619|   -4.061711|   -5.467952|
|         187|   -5.993428|   -4.092811|   -4.057126|   -5.465441|
|         188|   -5.995273|   -4.088132|   -4.052371|   -5.463020|
|         189|   -5.997388|   -4.083743|   -4.047535|   -5.460695|
|         190|   -5.999836|   -4.079935|   -4.042766|   -5.458387|
|         191|   -6.002617|   -4.076633|   -4.038164|   -5.456100|
|         192|   -6.005556|   -4.073797|   -4.033863|   -5.453847|
|         193|   -6.008591|   -4.071313|   -4.029933|   -5.451656|
|         194|   -6.011472|   -4.069035|   -4.026368|   -5.449552|
|         195|   -6.014398|   -4.066955|   -4.023125|   -5.447568|
|         196|   -6.017077|   -4.064959|   -4.020240|   -5.445734|
|         197|   -6.019633|   -4.063113|   -4.017786|   -5.444055|
|         198|   -6.021924|   -4.061484|   -4.015848|   -5.442535|
|         199|   -6.024267|   -4.060035|   -4.014355|   -5.441157|
|         200|   -6.026396|   -4.058687|   -4.013209|   -5.439911|
|         201|   -6.028717|   -4.057464|   -4.012294|   -5.438812|
|         202|   -6.030990|   -4.056423|   -4.011512|   -5.437902|
|         203|   -6.033198|   -4.055498|   -4.010767|   -5.437193|
|         204|   -6.035196|   -4.054519|   -4.010093|   -5.436696|
|         205|   -6.037198|   -4.053538|   -4.009620|   -5.436411|
|         206|   -6.039410|   -4.052750|   -4.009441|   -5.436335|
|         207|   -6.041822|   -4.052124|   -4.009490|   -5.436447|
|         208|   -6.044202|   -4.051641|   -4.009629|   -5.436765|
|         209|   -6.046765|   -4.051335|   -4.009789|   -5.437275|
|         210|   -6.049188|   -4.051070|   -4.009921|   -5.437970|
|         211|   -6.051746|   -4.050768|   -4.009974|   -5.438851|
|         212|   -6.054219|   -4.050333|   -4.010028|   -5.439917|
|         213|   -6.056853|   -4.049750|   -4.010186|   -5.441193|
|         214|   -6.059697|   -4.049026|   -4.010541|   -5.442682|
|         215|   -6.062817|   -4.048145|   -4.011074|   -5.444388|
|         216|   -6.065998|   -4.047115|   -4.011794|   -5.446299|
|         217|   -6.069546|   -4.045990|   -4.012663|   -5.448358|
|         218|   -6.073710|   -4.044752|   -4.013687|   -5.450566|
|         219|   -6.078539|   -4.043441|   -4.014826|   -5.452925|
|         220|   -6.083842|   -4.042118|   -4.016079|   -5.455442|
|         221|   -6.089618|   -4.040721|   -4.017391|   -5.458092|
|         222|   -6.095867|   -4.039104|   -4.018747|   -5.460861|
|         223|   -6.102501|   -4.037267|   -4.020264|   -5.463741|
|         224|   -6.109571|   -4.035316|   -4.022067|   -5.466732|
|         225|   -6.116914|   -4.033371|   -4.024195|   -5.469817|
|         226|   -6.124578|   -4.031404|   -4.026653|   -5.472992|
|         227|   -6.132471|   -4.029411|   -4.029473|   -5.476257|
|         228|   -6.140364|   -4.027352|   -4.032696|   -5.479615|
|         229|   -6.148284|   -4.025272|   -4.036315|   -5.483065|
|         230|   -6.156355|   -4.023195|   -4.040277|   -5.486601|
|         231|   -6.164437|   -4.021157|   -4.044566|   -5.490225|
|         232|   -6.172613|   -4.019214|   -4.049108|   -5.493928|
|         233|   -6.180778|   -4.017292|   -4.053942|   -5.497716|
|         234|   -6.188987|   -4.015418|   -4.059016|   -5.501579|
|         235|   -6.197830|   -4.013629|   -4.064332|   -5.505527|
|         236|   -6.206812|   -4.011992|   -4.069849|   -5.509525|
|         237|   -6.215975|   -4.010507|   -4.075505|   -5.513569|
|         238|   -6.225766|   -4.009219|   -4.081286|   -5.517669|
|         239|   -6.235820|   -4.008119|   -4.087138|   -5.521804|
|         240|   -6.245835|   -4.007122|   -4.092947|   -5.525959|
|         241|   -6.255994|   -4.006213|   -4.098672|   -5.530152|
|         242|   -6.266147|   -4.005373|   -4.104294|   -5.534376|
|         243|   -6.276099|   -4.004556|   -4.109724|   -5.538607|
|         244|   -6.285323|   -4.003718|   -4.114961|   -5.542860|
|         245|   -6.294110|   -4.002889|   -4.119903|   -5.547118|
|         246|   -6.302293|   -4.002067|   -4.124540|   -5.551371|
|         247|   -6.309468|   -4.001252|   -4.128847|   -5.555610|
|         248|   -6.315695|   -4.000432|   -4.132778|   -5.559834|
|         249|   -6.320922|   -3.999582|   -4.136188|   -5.564046|
|         250|   -6.325554|   -3.998708|   -4.139061|   -5.568231|
|         251|   -6.329609|   -3.997817|   -4.141565|   -5.572384|
|         252|   -6.332986|   -3.996914|   -4.143728|   -5.576514|
|         253|   -6.335867|   -3.995967|   -4.145591|   -5.580637|
|         254|   -6.338416|   -3.994929|   -4.147135|   -5.584745|
|         255|   -6.340615|   -3.993876|   -4.148418|   -5.588850|
|         256|   -6.343385|   -3.992752|   -4.149559|   -5.592969|
|         257|   -6.345868|   -3.991658|   -4.150626|   -5.597048|
|         258|   -6.348985|   -3.990468|   -4.151709|   -5.601151|
|         259|   -6.351997|   -3.989286|   -4.152839|   -5.605202|
|         260|   -6.355721|   -3.988082|   -4.154139|   -5.609243|
|         261|   -6.359428|   -3.986854|   -4.155691|   -5.613223|
|         262|   -6.363439|   -3.985588|   -4.157479|   -5.617157|
|         263|   -6.367268|   -3.984205|   -4.159497|   -5.621028|
|         264|   -6.371007|   -3.982733|   -4.161635|   -5.624825|
|         265|   -6.373955|   -3.981112|   -4.163824|   -5.628543|
|         266|   -6.376771|   -3.979397|   -4.165905|   -5.632181|
|         267|   -6.378417|   -3.977625|   -4.167762|   -5.635693|
|         268|   -6.379740|   -3.975871|   -4.169295|   -5.639131|
|         269|   -6.379891|   -3.974233|   -4.170406|   -5.642410|
|         270|   -6.379418|   -3.972692|   -4.171022|   -5.645615|
|         271|   -6.378199|   -3.971351|   -4.170953|   -5.648666|
|         272|   -6.376546|   -3.970123|   -4.170429|   -5.651627|
|         273|   -6.374106|   -3.969121|   -4.169444|   -5.654439|
|         274|   -6.371559|   -3.968226|   -4.168174|   -5.657184|
|         275|   -6.368423|   -3.967453|   -4.166632|   -5.659810|
|         276|   -6.365485|   -3.966798|   -4.164823|   -5.662439|
|         277|   -6.363281|   -3.966357|   -4.162928|   -5.665017|
|         278|   -6.361681|   -3.966255|   -4.160930|   -5.667588|
|         279|   -6.360665|   -3.966446|   -4.159065|   -5.670155|
|         280|   -6.361049|   -3.966966|   -4.157406|   -5.672773|
|         281|   -6.361725|   -3.967770|   -4.156143|   -5.675348|
|         282|   -6.363589|   -3.968778|   -4.155396|   -5.678014|
|         283|   -6.365480|   -3.970005|   -4.155240|   -5.680679|
|         284|   -6.367504|   -3.971404|   -4.155785|   -5.683417|
|         285|   -6.369741|   -3.972994|   -4.157026|   -5.686260|
|         286|   -6.371542|   -3.974721|   -4.158950|   -5.689163|
|         287|   -6.372628|   -3.976505|   -4.161522|   -5.692151|
|         288|   -6.373223|   -3.978322|   -4.164702|   -5.695249|
|         289|   -6.373131|   -3.980135|   -4.168441|   -5.698427|
|         290|   -6.371954|   -3.981889|   -4.172627|   -5.701669|
|         291|   -6.369607|   -3.983503|   -4.177066|   -5.704952|
|         292|   -6.366190|   -3.984896|   -4.181448|   -5.708231|
|         293|   -6.361661|   -3.985991|   -4.185360|   -5.711470|
|         294|   -6.356034|   -3.986706|   -4.188377|   -5.714602|
|         295|   -6.349622|   -3.986993|   -4.190117|   -5.717605|
|         296|   -6.342421|   -3.986872|   -4.190179|   -5.720423|
|         297|   -6.334191|   -3.986346|   -4.188273|   -5.722963|
|         298|   -6.325475|   -3.985467|   -4.184366|   -5.725238|
|         299|   -6.316712|   -3.984406|   -4.178529|   -5.727219|
|         300|   -6.307688|   -3.983273|   -4.171063|   -5.728848|
|         301|   -6.298322|   -3.982180|   -4.162258|   -5.730114|
|         302|   -6.288792|   -3.981259|   -4.152466|   -5.731047|
|         303|   -6.279341|   -3.980689|   -4.141942|   -5.731703|
|         304|   -6.270351|   -3.980612|   -4.131034|   -5.732102|
|         305|   -6.261681|   -3.981071|   -4.120140|   -5.732271|
|         306|   -6.253325|   -3.982123|   -4.109546|   -5.732266|
|         307|   -6.245292|   -3.983814|   -4.099530|   -5.732130|
|         308|   -6.237352|   -3.986205|   -4.090654|   -5.731891|
|         309|   -6.229338|   -3.989295|   -4.083121|   -5.731597|
|         310|   -6.221307|   -3.993052|   -4.077007|   -5.731302|
|         311|   -6.213177|   -3.997418|   -4.072345|   -5.731031|
|         312|   -6.204914|   -4.002298|   -4.069101|   -5.730758|
|         313|   -6.196342|   -4.007573|   -4.067145|   -5.730540|
|         314|   -6.187560|   -4.013188|   -4.066326|   -5.730361|
|         315|   -6.178366|   -4.019133|   -4.066514|   -5.730291|
|         316|   -6.168724|   -4.025442|   -4.067639|   -5.730391|
|         317|   -6.158672|   -4.032129|   -4.069719|   -5.730816|
|         318|   -6.148366|   -4.039215|   -4.072902|   -5.731684|
|         319|   -6.137934|   -4.046730|   -4.077268|   -5.733153|
|         320|   -6.127690|   -4.054684|   -4.082762|   -5.735329|
|         321|   -6.117880|   -4.063007|   -4.089140|   -5.738319|
|         322|   -6.109626|   -4.071692|   -4.095485|   -5.742265|
|         323|   -6.103764|   -4.080652|   -4.101295|   -5.746993|
|         324|   -6.099440|   -4.089731|   -4.107206|   -5.752227|
|         325|   -6.095477|   -4.098609|   -4.113432|   -5.757919|
|         326|   -6.091379|   -4.107098|   -4.119847|   -5.764022|
|         327|   -6.087007|   -4.115051|   -4.126297|   -5.770465|
|         328|   -6.082507|   -4.122329|   -4.132644|   -5.777140|
|         329|   -6.078061|   -4.128874|   -4.138706|   -5.783930|
|         330|   -6.073658|   -4.134662|   -4.144248|   -5.790710|
|         331|   -6.069133|   -4.139748|   -4.149106|   -5.797375|
|         332|   -6.064423|   -4.144256|   -4.153126|   -5.803852|
|         333|   -6.059473|   -4.148358|   -4.156165|   -5.810094|
|         334|   -6.054339|   -4.152265|   -4.158253|   -5.816085|
|         335|   -6.049093|   -4.156143|   -4.159570|   -5.821829|
|         336|   -6.043835|   -4.160166|   -4.160316|   -5.827347|
|         337|   -6.038705|   -4.164441|   -4.160723|   -5.832656|
|         338|   -6.033776|   -4.169047|   -4.161018|   -5.837790|
|         339|   -6.029092|   -4.174036|   -4.161375|   -5.842800|
|         340|   -6.024744|   -4.179454|   -4.162006|   -5.847740|
|         341|   -6.020874|   -4.185348|   -4.163004|   -5.852611|
|         342|   -6.017571|   -4.191695|   -4.164586|   -5.857390|
|         343|   -6.014848|   -4.198405|   -4.166975|   -5.862031|
|         344|   -6.012659|   -4.205393|   -4.170106|   -5.866462|
|         345|   -6.010789|   -4.212503|   -4.173896|   -5.870570|
|         346|   -6.009058|   -4.219533|   -4.178071|   -5.874245|
|         347|   -6.007476|   -4.226332|   -4.179612|   -5.877443|
|         348|   -6.005745|   -4.232810|   -4.180092|   -5.879960|
|         349|   -6.004182|   -4.238916|   -4.180174|   -5.881671|
|         350|   -6.002749|   -4.244625|   -4.179949|   -5.881629|
|         351|   -6.001312|   -4.249892|   -4.179501|   -5.879861|
|         352|   -5.999727|   -4.254649|   -4.178804|   -5.876804|
|         353|   -5.998008|   -4.258880|   -4.177897|   -5.872857|
|         354|   -5.996205|   -4.262624|   -4.176833|   -5.869034|
|         355|   -5.994364|   -4.265886|   -4.175634|   -5.865037|
|         356|   -5.992501|   -4.268656|   -4.174334|   -5.860807|
|         357|   -5.990658|   -4.271044|   -4.172971|   -5.856351|
|         358|   -5.988884|   -4.273242|   -4.171645|   -5.851791|
|         359|   -5.987206|   -4.275345|   -4.170454|   -5.847240|
|         360|   -5.985639|   -4.277397|   -4.169478|   -5.842850|
|         361|   -5.984188|   -4.279389|   -4.168767|   -5.838701|
|         362|   -5.982840|   -4.281269|   -4.168295|   -5.834828|
|         363|   -5.981554|   -4.282930|   -4.168011|   -5.831269|
|         364|   -5.980302|   -4.284332|   -4.167839|   -5.828034|
|         365|   -5.979065|   -4.285487|   -4.167719|   -5.825099|
|         366|   -5.977838|   -4.286419|   -4.167622|   -5.822453|
|         367|   -5.976624|   -4.287166|   -4.167510|   -5.820098|
|         368|   -5.975452|   -4.287760|   -4.167402|   -5.818036|
|         369|   -5.974286|   -4.288229|   -4.167255|   -5.816281|
|         370|   -5.973103|   -4.288622|   -4.167005|   -5.814874|
|         371|   -5.971908|   -4.288988|   -4.166616|   -5.813903|
|         372|   -5.970863|   -4.289354|   -4.166312|   -5.813433|
|         373|   -5.970010|   -4.289760|   -4.166082|   -5.813513|
|         374|   -5.969385|   -4.290268|   -4.165897|   -5.814194|
|         375|   -5.969075|   -4.290963|   -4.165845|   -5.815402|
|         376|   -5.969106|   -4.291878|   -4.165977|   -5.817138|
|         377|   -5.969527|   -4.293013|   -4.166416|   -5.819338|
|         378|   -5.970313|   -4.294316|   -4.167200|   -5.821929|
|         379|   -5.971426|   -4.295684|   -4.168343|   -5.824792|
|         380|   -5.972817|   -4.297015|   -4.169813|   -5.827862|
|         381|   -5.974463|   -4.298164|   -4.171628|   -5.831035|
|         382|   -5.976347|   -4.299005|   -4.173805|   -5.834247|
|         383|   -5.978440|   -4.299459|   -4.176331|   -5.837410|
|         384|   -5.980649|   -4.299459|   -4.179074|   -5.840477|
|         385|   -5.983052|   -4.298968|   -4.182154|   -5.843413|
|         386|   -5.985586|   -4.297942|   -4.185456|   -5.846226|
|         387|   -5.988224|   -4.296363|   -4.188907|   -5.848939|
|         388|   -5.991008|   -4.294251|   -4.192561|   -5.851525|
|         389|   -5.993808|   -4.291687|   -4.196168|   -5.853933|
|         390|   -5.996703|   -4.288716|   -4.199775|   -5.856098|
|         391|   -5.999698|   -4.285394|   -4.203348|   -5.857979|
|         392|   -6.002763|   -4.281822|   -4.206854|   -5.859505|
|         393|   -6.005911|   -4.278141|   -4.210411|   -5.860609|
|         394|   -6.009069|   -4.274435|   -4.213913|   -5.861212|
|         395|   -6.012230|   -4.270846|   -4.217415|   -5.861261|
|         396|   -6.015361|   -4.267488|   -4.220950|   -5.860718|
|         397|   -6.018404|   -4.264485|   -4.224443|   -5.859572|
|         398|   -6.021362|   -4.261881|   -4.227834|   -5.857862|
|         399|   -6.024254|   -4.259654|   -4.231073|   -5.855708|
|         400|   -6.027119|   -4.257800|   -4.234071|   -5.853303|
|         401|   -6.030005|   -4.256171|   -4.233215|   -5.850869|
|         402|   -6.032404|   -4.254684|   -4.230129|   -5.848409|
|         403|   -6.034854|   -4.252983|   -4.226952|   -5.845966|
|         404|   -6.037596|   -4.250863|   -4.224709|   -5.843533|
|         405|   -6.040616|   -4.248271|   -4.223549|   -5.841088|
|         406|   -6.043805|   -4.245420|   -4.223637|   -5.838616|
|         407|   -6.047026|   -4.242594|   -4.224416|   -5.836100|
|         408|   -6.050215|   -4.239992|   -4.225670|   -5.833527|
|         409|   -6.053298|   -4.237564|   -4.227234|   -5.830808|
|         410|   -6.056273|   -4.235357|   -4.229598|   -5.827965|
|         411|   -6.059108|   -4.233389|   -4.232286|   -5.824978|
|         412|   -6.061907|   -4.231774|   -4.236062|   -5.821854|
|         413|   -6.064751|   -4.230349|   -4.240137|   -5.818558|
|         414|   -6.067761|   -4.229135|   -4.245340|   -5.814923|
|         415|   -6.070767|   -4.227748|   -4.250604|   -5.811131|
|         416|   -6.073833|   -4.226094|   -4.256304|   -5.807199|
|         417|   -6.077178|   -4.224074|   -4.262359|   -5.802923|
|         418|   -6.080255|   -4.221580|   -4.268456|   -5.798349|
|         419|   -6.083161|   -4.218592|   -4.274341|   -5.793569|
|         420|   -6.085687|   -4.215150|   -4.279495|   -5.788527|
|         421|   -6.088065|   -4.211175|   -4.283254|   -5.783332|
|         422|   -6.090143|   -4.206781|   -4.286611|   -5.777933|
|         423|   -6.092012|   -4.202011|   -4.289730|   -5.772388|
|         424|   -6.093543|   -4.196885|   -4.292575|   -5.766730|
|         425|   -6.094692|   -4.191368|   -4.294999|   -5.761028|
|         426|   -6.095414|   -4.185396|   -4.296738|   -5.755471|
|         427|   -6.095891|   -4.178926|   -4.297289|   -5.750191|
|         428|   -6.096316|   -4.172089|   -4.297249|   -5.745266|
|         429|   -6.096662|   -4.164976|   -4.296791|   -5.740819|
|         430|   -6.097024|   -4.157648|   -4.295858|   -5.736869|
|         431|   -6.097397|   -4.150185|   -4.294348|   -5.733389|
|         432|   -6.097741|   -4.142684|   -4.292200|   -5.730340|
|         433|   -6.098285|   -4.135237|   -4.289348|   -5.727576|
|         434|   -6.098873|   -4.127880|   -4.285744|   -5.724945|
|         435|   -6.099481|   -4.120649|   -4.281207|   -5.722297|
|         436|   -6.100101|   -4.113550|   -4.275249|   -5.719572|
|         437|   -6.101230|   -4.106734|   -4.268412|   -5.716546|
|         438|   -6.102375|   -4.100266|   -4.261007|   -5.713194|
|         439|   -6.103417|   -4.094174|   -4.253119|   -5.709451|
|         440|   -6.104205|   -4.088474|   -4.244872|   -5.705401|
|         441|   -6.104733|   -4.083190|   -4.236422|   -5.701174|
|         442|   -6.104913|   -4.078315|   -4.227817|   -5.696908|
|         443|   -6.105025|   -4.073765|   -4.219044|   -5.692693|
|         444|   -6.105202|   -4.069542|   -4.210129|   -5.688805|
|         445|   -6.105973|   -4.065723|   -4.201410|   -5.685300|
|         446|   -6.106991|   -4.062356|   -4.193300|   -5.682345|
|         447|   -6.108541|   -4.059335|   -4.186039|   -5.679971|
|         448|   -6.110787|   -4.056566|   -4.179587|   -5.678123|
|         449|   -6.113595|   -4.053855|   -4.173883|   -5.676747|
|         450|   -6.116782|   -4.051159|   -4.168760|   -5.675848|
|         451|   -6.120343|   -4.048404|   -4.163843|   -5.675483|
|         452|   -6.124697|   -4.045642|   -4.159431|   -5.675450|
|         453|   -6.128584|   -4.042869|   -4.155622|   -5.675701|
|         454|   -6.131692|   -4.039997|   -4.152499|   -5.676243|
|         455|   -6.134138|   -4.037044|   -4.150129|   -5.677114|
|         456|   -6.136265|   -4.034126|   -4.148801|   -5.678411|
|         457|   -6.139115|   -4.031507|   -4.149597|   -5.680015|
|         458|   -6.143887|   -4.029495|   -4.153105|   -5.681918|
|         459|   -6.152501|   -4.028097|   -4.159258|   -5.683894|
|         460|   -6.163880|   -4.028273|   -4.168173|   -5.685727|
|         461|   -6.178409|   -4.030113|   -4.179140|   -5.687330|
|         462|   -6.195163|   -4.032538|   -4.190518|   -5.688593|
|         463|   -6.211095|   -4.034384|   -4.200710|   -5.689457|
|         464|   -6.223929|   -4.035584|   -4.209338|   -5.689957|
|         465|   -6.234449|   -4.036347|   -4.216229|   -5.690127|
|         466|   -6.243561|   -4.036768|   -4.221540|   -5.689970|
|         467|   -6.251586|   -4.037033|   -4.225857|   -5.689454|
|         468|   -6.258076|   -4.037261|   -4.229745|   -5.688577|
|         469|   -6.263189|   -4.037491|   -4.233619|   -5.687350|
|         470|   -6.267512|   -4.037801|   -4.237765|   -5.685813|
|         471|   -6.271499|   -4.038202|   -4.242416|   -5.683981|
|         472|   -6.275021|   -4.038661|   -4.247439|   -5.681898|
|         473|   -6.278022|   -4.039074|   -4.252510|   -5.679617|
|         474|   -6.280501|   -4.039347|   -4.257311|   -5.677206|
|         475|   -6.282271|   -4.039432|   -4.261569|   -5.674754|
|         476|   -6.283086|   -4.039306|   -4.265137|   -5.672247|
|         477|   -6.282720|   -4.038968|   -4.268017|   -5.669626|
|         478|   -6.281113|   -4.038402|   -4.270010|   -5.666821|
|         479|   -6.278499|   -4.037536|   -4.270936|   -5.663909|
|         480|   -6.275238|   -4.036400|   -4.270881|   -5.660953|
|         481|   -6.270797|   -4.034983|   -4.269918|   -5.658251|
|         482|   -6.265101|   -4.033239|   -4.268112|   -5.655973|
|         483|   -6.259132|   -4.031264|   -4.265809|   -5.654070|
|         484|   -6.253123|   -4.029390|   -4.263088|   -5.652442|
|         485|   -6.247574|   -4.028033|   -4.259058|   -5.651052|
|         486|   -6.240436|   -4.027208|   -4.254526|   -5.649890|
|         487|   -6.233698|   -4.026322|   -4.253138|   -5.649001|
|         488|   -6.228534|   -4.025301|   -4.254031|   -5.648585|
|         489|   -6.225663|   -4.025027|   -4.255892|   -5.648680|
|         490|   -6.226032|   -4.026345|   -4.258379|   -5.649211|
|         491|   -6.226276|   -4.028779|   -4.261276|   -5.650230|
|         492|   -6.226937|   -4.031138|   -4.263923|   -5.651616|
|         493|   -6.227245|   -4.033534|   -4.265902|   -5.653161|
|         494|   -6.225946|   -4.036325|   -4.267364|   -5.654705|
|         495|   -6.222914|   -4.039457|   -4.267784|   -5.656259|
|         496|   -6.218101|   -4.042631|   -4.267320|   -5.657982|
|         497|   -6.212344|   -4.045539|   -4.265982|   -5.659976|
|         498|   -6.206941|   -4.048257|   -4.263811|   -5.662143|
|         499|   -6.201932|   -4.051005|   -4.261190|   -5.664232|
|         500|   -6.196961|   -4.053889|   -4.258779|   -5.666002|
+-----------------------------------------------------------------------+
|        File Writing Summary       |              Filename             |
+-----------------------------------------------------------------------+
|SU2 restart                        |restart_venturi_mixturedensity_30kW_fine_test.dat|
|                                   |                     (423.342 MB/s)|
|Paraview                           |flow_venturi_mixturedensity_30kW_fine_test_00000500.vtu|
|                                   |                     (7.25286 MB/s)|
|Paraview surface                   |surface_flow_venturi_mixturedensity_30kW_fine_test.vtu|
|                                   |                     (2.00976 MB/s)|
+-----------------------------------------------------------------------+
+----------------------------------------------------------------+
|  Inner_Iter|      rms[P]|      rms[U]|      rms[V]|      rms[c]|
+----------------------------------------------------------------+
|         501|   -6.191876|   -4.056865|   -4.256139|   -5.667419|
|         502|   -6.187540|   -4.059715|   -4.251942|   -5.668599|
|         503|   -6.184343|   -4.062241|   -4.247161|   -5.669668|
|         504|   -6.181500|   -4.064227|   -4.242319|   -5.670777|
|         505|   -6.178913|   -4.065888|   -4.237598|   -5.671960|
|         506|   -6.177068|   -4.067531|   -4.232988|   -5.673192|
|         507|   -6.176138|   -4.069443|   -4.228794|   -5.674458|
|         508|   -6.175642|   -4.071824|   -4.225266|   -5.675781|
|         509|   -6.174947|   -4.074749|   -4.222186|   -5.677191|
|         510|   -6.173706|   -4.078270|   -4.219150|   -5.678677|
|         511|   -6.171777|   -4.082390|   -4.215840|   -5.680178|
|         512|   -6.169231|   -4.087021|   -4.212058|   -5.681630|
|         513|   -6.166216|   -4.092017|   -4.207763|   -5.683002|
|         514|   -6.162898|   -4.097207|   -4.202997|   -5.684288|
|         515|   -6.159562|   -4.102400|   -4.197852|   -5.685493|
|         516|   -6.156372|   -4.107411|   -4.192532|   -5.686631|
|         517|   -6.153470|   -4.112086|   -4.187294|   -5.687716|
|         518|   -6.151030|   -4.116328|   -4.182339|   -5.688753|
|         519|   -6.149093|   -4.120080|   -4.177798|   -5.689745|
|         520|   -6.147572|   -4.123301|   -4.173713|   -5.690698|
|         521|   -6.146300|   -4.125940|   -4.170112|   -5.691619|
|         522|   -6.145131|   -4.127975|   -4.166978|   -5.692513|
|         523|   -6.143864|   -4.129413|   -4.164312|   -5.693389|
|         524|   -6.142316|   -4.130296|   -4.162120|   -5.694261|
|         525|   -6.140343|   -4.130717|   -4.160458|   -5.695145|
|         526|   -6.137833|   -4.130833|   -4.159342|   -5.696053|
|         527|   -6.134793|   -4.130830|   -4.158777|   -5.696998|
|         528|   -6.131340|   -4.130854|   -4.158721|   -5.697983|
|         529|   -6.127667|   -4.130971|   -4.159063|   -5.699007|
|         530|   -6.124023|   -4.131165|   -4.159695|   -5.700077|
|         531|   -6.120822|   -4.131314|   -4.160556|   -5.701199|
|         532|   -6.118568|   -4.131475|   -4.161457|   -5.702373|
|         533|   -6.117684|   -4.132262|   -4.162335|   -5.703596|
|         534|   -6.118473|   -4.134742|   -4.163060|   -5.704860|
|         535|   -6.120745|   -4.139845|   -4.163443|   -5.706166|
|         536|   -6.123697|   -4.146845|   -4.163794|   -5.707505|
|         537|   -6.126612|   -4.154737|   -4.164877|   -5.708882|
|         538|   -6.129102|   -4.162923|   -4.166838|   -5.710289|
|         539|   -6.131055|   -4.170621|   -4.169364|   -5.711713|
|         540|   -6.132538|   -4.177085|   -4.172158|   -5.713141|
|         541|   -6.133683|   -4.182119|   -4.175150|   -5.714561|
|         542|   -6.134602|   -4.186134|   -4.177915|   -5.715967|
|         543|   -6.135396|   -4.189635|   -4.180085|   -5.717348|
|         544|   -6.136111|   -4.192930|   -4.181631|   -5.718691|
|         545|   -6.136753|   -4.196160|   -4.182613|   -5.719986|
|         546|   -6.137328|   -4.199374|   -4.183161|   -5.721222|
|         547|   -6.137833|   -4.202641|   -4.183389|   -5.722392|
|         548|   -6.138275|   -4.205945|   -4.183415|   -5.723491|
|         549|   -6.138678|   -4.209254|   -4.183307|   -5.724521|
|         550|   -6.139060|   -4.212524|   -4.183125|   -5.725489|
|         551|   -6.139441|   -4.215720|   -4.182904|   -5.726401|
|         552|   -6.139838|   -4.218802|   -4.182663|   -5.727269|
|         553|   -6.140264|   -4.221731|   -4.182417|   -5.728106|
|         554|   -6.140733|   -4.224466|   -4.182176|   -5.728924|
|         555|   -6.141252|   -4.226965|   -4.181950|   -5.729740|
|         556|   -6.141831|   -4.229193|   -4.181752|   -5.730566|
|         557|   -6.142474|   -4.231129|   -4.181596|   -5.731413|
|         558|   -6.143187|   -4.232758|   -4.181488|   -5.732291|
|         559|   -6.143973|   -4.234071|   -4.181437|   -5.733206|
|         560|   -6.144836|   -4.235063|   -4.181447|   -5.734159|
|         561|   -6.145787|   -4.235733|   -4.181530|   -5.735150|
|         562|   -6.146832|   -4.236087|   -4.181697|   -5.736176|
|         563|   -6.147980|   -4.236137|   -4.181959|   -5.737232|
|         564|   -6.149237|   -4.235908|   -4.182327|   -5.738312|
|         565|   -6.150607|   -4.235426|   -4.182813|   -5.739413|
|         566|   -6.152090|   -4.234717|   -4.183426|   -5.740532|
|         567|   -6.153686|   -4.233807|   -4.184171|   -5.741671|
|         568|   -6.155390|   -4.232714|   -4.185042|   -5.742833|
|         569|   -6.157193|   -4.231449|   -4.186033|   -5.744025|
|         570|   -6.159089|   -4.230020|   -4.187140|   -5.745255|
|         571|   -6.161071|   -4.228430|   -4.188364|   -5.746534|
|         572|   -6.163136|   -4.226685|   -4.189705|   -5.747871|
|         573|   -6.165280|   -4.224787|   -4.191159|   -5.749278|
|         574|   -6.167498|   -4.222741|   -4.192718|   -5.750764|
|         575|   -6.169790|   -4.220548|   -4.194383|   -5.752335|
|         576|   -6.172161|   -4.218211|   -4.196156|   -5.753997|
|         577|   -6.174617|   -4.215735|   -4.198040|   -5.755754|
|         578|   -6.177164|   -4.213132|   -4.200018|   -5.757608|
|         579|   -6.179807|   -4.210415|   -4.202090|   -5.759558|
|         580|   -6.182554|   -4.207604|   -4.204276|   -5.761605|
|         581|   -6.185415|   -4.204716|   -4.206587|   -5.763748|
|         582|   -6.188394|   -4.201767|   -4.209026|   -5.765984|
|         583|   -6.191495|   -4.198766|   -4.211590|   -5.768314|
|         584|   -6.194721|   -4.195720|   -4.214282|   -5.770736|
|         585|   -6.198081|   -4.192635|   -4.217106|   -5.773248|
|         586|   -6.201577|   -4.189515|   -4.220061|   -5.775849|
|         587|   -6.205213|   -4.186367|   -4.223147|   -5.778537|
|         588|   -6.208987|   -4.183194|   -4.226361|   -5.781311|
|         589|   -6.212902|   -4.180006|   -4.229703|   -5.784169|
|         590|   -6.216958|   -4.176810|   -4.233170|   -5.787108|
|         591|   -6.221146|   -4.173612|   -4.236748|   -5.790127|
|         592|   -6.225456|   -4.170420|   -4.240432|   -5.793223|
|         593|   -6.229881|   -4.167241|   -4.244226|   -5.796393|
|         594|   -6.234421|   -4.164082|   -4.248138|   -5.799636|
|         595|   -6.239075|   -4.160951|   -4.252176|   -5.802949|
|         596|   -6.243844|   -4.157859|   -4.256348|   -5.806329|
|         597|   -6.248755|   -4.154802|   -4.260159|   -5.809772|
|         598|   -6.253710|   -4.151783|   -4.263760|   -5.813270|
|         599|   -6.258783|   -4.148811|   -4.267488|   -5.816822|
|         600|   -6.264044|   -4.145891|   -4.271482|   -5.820425|
|         601|   -6.269522|   -4.143023|   -4.275790|   -5.824078|
|         602|   -6.275213|   -4.140205|   -4.280406|   -5.827779|
|         603|   -6.281122|   -4.137439|   -4.285338|   -5.831527|
|         604|   -6.287261|   -4.134730|   -4.290606|   -5.835320|
|         605|   -6.293649|   -4.132087|   -4.296231|   -5.839158|
|         606|   -6.300307|   -4.129517|   -4.302234|   -5.843041|
|         607|   -6.307259|   -4.127026|   -4.308636|   -5.846966|
|         608|   -6.314533|   -4.124615|   -4.315467|   -5.850935|
|         609|   -6.322163|   -4.122284|   -4.322756|   -5.854946|
|         610|   -6.330166|   -4.120034|   -4.330504|   -5.858998|
|         611|   -6.338558|   -4.117868|   -4.338731|   -5.863092|
|         612|   -6.347363|   -4.115790|   -4.347464|   -5.867228|
|         613|   -6.356598|   -4.113805|   -4.356725|   -5.871405|
|         614|   -6.366281|   -4.111919|   -4.366522|   -5.875623|
|         615|   -6.376422|   -4.110133|   -4.376855|   -5.879884|
|         616|   -6.387031|   -4.108450|   -4.387721|   -5.884188|
|         617|   -6.398112|   -4.106873|   -4.399112|   -5.888536|
|         618|   -6.409657|   -4.105406|   -4.411010|   -5.892930|
|         619|   -6.421647|   -4.104056|   -4.423386|   -5.897369|
|         620|   -6.434062|   -4.102833|   -4.436218|   -5.901856|
|         621|   -6.446889|   -4.101745|   -4.449507|   -5.906393|
|         622|   -6.460080|   -4.100800|   -4.463192|   -5.910980|
|         623|   -6.473548|   -4.100003|   -4.477155|   -5.915619|
|         624|   -6.487217|   -4.099359|   -4.491310|   -5.920311|
|         625|   -6.501001|   -4.098866|   -4.505559|   -5.925057|
|         626|   -6.514794|   -4.098523|   -4.519780|   -5.929858|
|         627|   -6.528457|   -4.098326|   -4.533800|   -5.934715|
|         628|   -6.541840|   -4.098273|   -4.547428|   -5.939629|
|         629|   -6.554783|   -4.098361|   -4.560476|   -5.944599|
|         630|   -6.567100|   -4.098585|   -4.572735|   -5.949626|
|         631|   -6.578598|   -4.098943|   -4.584015|   -5.954709|
|         632|   -6.589087|   -4.099426|   -4.594145|   -5.959847|
|         633|   -6.598384|   -4.100029|   -4.602967|   -5.965038|
|         634|   -6.606328|   -4.100740|   -4.610335|   -5.970283|
|         635|   -6.612786|   -4.101552|   -4.616126|   -5.975578|
|         636|   -6.617669|   -4.102455|   -4.620250|   -5.980921|
|         637|   -6.620933|   -4.103443|   -4.622671|   -5.986311|
|         638|   -6.622616|   -4.104508|   -4.623400|   -5.991743|
|         639|   -6.622762|   -4.105648|   -4.622540|   -5.997215|
|         640|   -6.621484|   -4.106859|   -4.620254|   -6.002722|
|         641|   -6.618931|   -4.108134|   -4.616758|   -6.008260|
|         642|   -6.615270|   -4.109470|   -4.612279|   -6.013826|
|         643|   -6.610677|   -4.110859|   -4.607031|   -6.019416|
|         644|   -6.605332|   -4.112294|   -4.601219|   -6.025029|
|         645|   -6.599413|   -4.113767|   -4.595010|   -6.030664|
|         646|   -6.593091|   -4.115271|   -4.588544|   -6.036317|
|         647|   -6.586505|   -4.116802|   -4.581917|   -6.041986|
|         648|   -6.579767|   -4.118354|   -4.575207|   -6.047671|
|         649|   -6.572986|   -4.119930|   -4.568525|   -6.053372|
|         650|   -6.566244|   -4.121531|   -4.561982|   -6.059089|
|         651|   -6.559593|   -4.123165|   -4.555657|   -6.064821|
|         652|   -6.553053|   -4.124840|   -4.549595|   -6.070567|
|         653|   -6.546636|   -4.126561|   -4.543832|   -6.076326|
|         654|   -6.540341|   -4.128334|   -4.538378|   -6.082096|
|         655|   -6.534159|   -4.130161|   -4.533213|   -6.087875|
|         656|   -6.528078|   -4.132048|   -4.528308|   -6.093662|
|         657|   -6.522076|   -4.134000|   -4.523624|   -6.099456|
|         658|   -6.516126|   -4.136023|   -4.519114|   -6.105255|
|         659|   -6.510199|   -4.138124|   -4.514739|   -6.111059|
|         660|   -6.504263|   -4.140309|   -4.510470|   -6.116868|
|         661|   -6.498289|   -4.142580|   -4.506286|   -6.122680|
|         662|   -6.492233|   -4.144936|   -4.502153|   -6.128497|
|         663|   -6.486050|   -4.147377|   -4.498035|   -6.134319|
|         664|   -6.479707|   -4.149897|   -4.493919|   -6.140152|
|         665|   -6.473190|   -4.152495|   -4.489800|   -6.145999|
|         666|   -6.466492|   -4.155172|   -4.485667|   -6.151863|
|         667|   -6.459619|   -4.157933|   -4.481492|   -6.157749|
|         668|   -6.452572|   -4.160784|   -4.477240|   -6.163658|
|         669|   -6.445331|   -4.163730|   -4.472914|   -6.169593|
|         670|   -6.437924|   -4.166775|   -4.468543|   -6.175555|
|         671|   -6.430403|   -4.169921|   -4.464183|   -6.181543|
|         672|   -6.422772|   -4.173165|   -4.459828|   -6.187550|
|         673|   -6.415026|   -4.176508|   -4.455480|   -6.193569|
|         674|   -6.407175|   -4.179950|   -4.451184|   -6.199590|
|         675|   -6.399234|   -4.183493|   -4.446989|   -6.205603|
|         676|   -6.391224|   -4.187136|   -4.442923|   -6.211585|
|         677|   -6.383164|   -4.190876|   -4.438989|   -6.217514|
|         678|   -6.375069|   -4.194705|   -4.435180|   -6.223359|
|         679|   -6.366959|   -4.198620|   -4.431486|   -6.229087|
|         680|   -6.358861|   -4.202613|   -4.427905|   -6.234667|
|         681|   -6.350799|   -4.206680|   -4.424447|   -6.240057|
|         682|   -6.342789|   -4.210807|   -4.421135|   -6.245215|
|         683|   -6.334841|   -4.214979|   -4.417999|   -6.250100|
|         684|   -6.326975|   -4.219181|   -4.415075|   -6.254669|
|         685|   -6.319198|   -4.223394|   -4.412385|   -6.258878|
|         686|   -6.311511|   -4.227614|   -4.409920|   -6.262685|
|         687|   -6.303914|   -4.231847|   -4.407687|   -6.266047|
|         688|   -6.296417|   -4.236092|   -4.405708|   -6.268925|
|         689|   -6.289032|   -4.240346|   -4.404008|   -6.271277|
|         690|   -6.281758|   -4.244581|   -4.402601|   -6.273068|
|         691|   -6.274599|   -4.248761|   -4.401475|   -6.274268|
|         692|   -6.267623|   -4.252847|   -4.400227|   -6.274863|
|         693|   -6.260733|   -4.256851|   -4.399066|   -6.274830|
|         694|   -6.253968|   -4.260783|   -4.398143|   -6.274146|
|         695|   -6.247347|   -4.264643|   -4.397542|   -6.272791|
|         696|   -6.240871|   -4.268419|   -4.397296|   -6.270757|
|         697|   -6.234526|   -4.272106|   -4.397409|   -6.268042|
|         698|   -6.228310|   -4.275689|   -4.397807|   -6.264664|
|         699|   -6.222208|   -4.279155|   -4.398474|   -6.260650|
|         700|   -6.216210|   -4.282498|   -4.399547|   -6.256020|
|         701|   -6.210330|   -4.285721|   -4.401099|   -6.250806|
|         702|   -6.204571|   -4.288839|   -4.403189|   -6.245056|
|         703|   -6.198985|   -4.291869|   -4.405131|   -6.238896|
|         704|   -6.193451|   -4.294855|   -4.407122|   -6.232399|
|         705|   -6.187975|   -4.297820|   -4.409471|   -6.225629|
|         706|   -6.182587|   -4.300823|   -4.412279|   -6.218656|
|         707|   -6.177271|   -4.303933|   -4.415566|   -6.211594|
|         708|   -6.172006|   -4.307233|   -4.419358|   -6.204551|
|         709|   -6.166771|   -4.310803|   -4.423683|   -6.197682|
|         710|   -6.161809|   -4.314646|   -4.424785|   -6.191600|
|         711|   -6.156601|   -4.318879|   -4.423287|   -6.186407|
|         712|   -6.151231|   -4.323502|   -4.421213|   -6.181931|
|         713|   -6.146017|   -4.328437|   -4.419180|   -6.177991|
|         714|   -6.141033|   -4.333637|   -4.417393|   -6.174377|
|         715|   -6.136259|   -4.339038|   -4.415883|   -6.170917|
|         716|   -6.131675|   -4.344556|   -4.414673|   -6.167487|
|         717|   -6.127417|   -4.350021|   -4.410417|   -6.164260|
|         718|   -6.122973|   -4.355465|   -4.404841|   -6.161003|
|         719|   -6.118549|   -4.360813|   -4.399147|   -6.157581|
|         720|   -6.114285|   -4.366043|   -4.393684|   -6.153965|
|         721|   -6.110258|   -4.371201|   -4.388642|   -6.150161|
|         722|   -6.106459|   -4.376329|   -4.384007|   -6.146252|
|         723|   -6.102905|   -4.381465|   -4.379765|   -6.142335|
|         724|   -6.099549|   -4.386604|   -4.375829|   -6.138520|
|         725|   -6.096350|   -4.391746|   -4.372123|   -6.134874|
|         726|   -6.093312|   -4.396905|   -4.368647|   -6.131400|
|         727|   -6.090434|   -4.402106|   -4.365393|   -6.128086|
|         728|   -6.087683|   -4.407357|   -4.362264|   -6.124927|
|         729|   -6.085137|   -4.412679|   -4.359373|   -6.121896|
|         730|   -6.082733|   -4.418046|   -4.356590|   -6.118957|
|         731|   -6.080472|   -4.423428|   -4.353921|   -6.116087|
|         732|   -6.078346|   -4.428766|   -4.351350|   -6.113267|
|         733|   -6.076374|   -4.434021|   -4.348912|   -6.110476|
|         734|   -6.074559|   -4.439143|   -4.346621|   -6.107714|
|         735|   -6.072796|   -4.444035|   -4.344275|   -6.105025|
|         736|   -6.071248|   -4.448714|   -4.342186|   -6.102376|
|         737|   -6.069813|   -4.453134|   -4.340177|   -6.099697|
|         738|   -6.068519|   -4.457276|   -4.338297|   -6.096964|
|         739|   -6.067370|   -4.461101|   -4.336548|   -6.094186|
|         740|   -6.066370|   -4.464564|   -4.334932|   -6.091415|
|         741|   -6.065570|   -4.467629|   -4.333550|   -6.088665|
|         742|   -6.064880|   -4.470216|   -4.332214|   -6.085888|
|         743|   -6.064342|   -4.472283|   -4.331012|   -6.083028|
|         744|   -6.063959|   -4.473780|   -4.329945|   -6.080075|
|         745|   -6.063692|   -4.474688|   -4.328952|   -6.077064|
|         746|   -6.063560|   -4.475048|   -4.328095|   -6.074014|
|         747|   -6.063548|   -4.474924|   -4.327380|   -6.070922|
|         748|   -6.063635|   -4.474374|   -4.326763|   -6.067795|
|         749|   -6.063813|   -4.473429|   -4.326223|   -6.064668|
|         750|   -6.064120|   -4.472102|   -4.325841|   -6.061612|
|         751|   -6.064539|   -4.470392|   -4.325568|   -6.058707|
|         752|   -6.065060|   -4.468331|   -4.325362|   -6.055958|
|         753|   -6.065681|   -4.466006|   -4.325225|   -6.053281|
|         754|   -6.066417|   -4.463525|   -4.325158|   -6.050553|
|         755|   -6.067271|   -4.460959|   -4.325152|   -6.047681|
|         756|   -6.068252|   -4.458364|   -4.325231|   -6.044603|
|         757|   -6.069355|   -4.455824|   -4.325417|   -6.041300|
|         758|   -6.070543|   -4.453361|   -4.325700|   -6.037769|
|         759|   -6.071800|   -4.451000|   -4.326105|   -6.034026|
|         760|   -6.073109|   -4.448763|   -4.326633|   -6.030097|
|         761|   -6.074456|   -4.446721|   -4.327270|   -6.026002|
|         762|   -6.075830|   -4.444965|   -4.327988|   -6.021749|
|         763|   -6.077210|   -4.443532|   -4.328775|   -6.017341|
|         764|   -6.078584|   -4.442427|   -4.329654|   -6.012832|
|         765|   -6.079944|   -4.441589|   -4.330635|   -6.008326|
|         766|   -6.081278|   -4.440972|   -4.331723|   -6.003958|
|         767|   -6.082574|   -4.440556|   -4.332892|   -5.999853|
|         768|   -6.083820|   -4.440327|   -4.334117|   -5.996073|
|         769|   -6.085024|   -4.440277|   -4.335384|   -5.992612|
|         770|   -6.086188|   -4.440403|   -4.336701|   -5.989449|
|         771|   -6.087320|   -4.440686|   -4.338083|   -5.986564|
|         772|   -6.088414|   -4.441095|   -4.339551|   -5.983950|
|         773|   -6.089472|   -4.441622|   -4.341115|   -5.981606|
|         774|   -6.090489|   -4.442216|   -4.342764|   -5.979518|
|         775|   -6.091462|   -4.442843|   -4.344493|   -5.977654|
|         776|   -6.092416|   -4.443443|   -4.346293|   -5.976003|
|         777|   -6.093327|   -4.443942|   -4.348171|   -5.974551|
|         778|   -6.094209|   -4.444298|   -4.350139|   -5.973338|
|         779|   -6.095090|   -4.444493|   -4.352202|   -5.972409|
|         780|   -6.095969|   -4.444496|   -4.354357|   -5.971642|
|         781|   -6.096860|   -4.444272|   -4.356580|   -5.971074|
|         782|   -6.097717|   -4.443779|   -4.358856|   -5.970754|
|         783|   -6.098613|   -4.442975|   -4.361166|   -5.970643|
|         784|   -6.099590|   -4.441849|   -4.363493|   -5.970700|
|         785|   -6.100572|   -4.440348|   -4.365816|   -5.971069|
|         786|   -6.101645|   -4.438418|   -4.368127|   -5.971626|
|         787|   -6.102795|   -4.436045|   -4.370422|   -5.972599|
|         788|   -6.104051|   -4.433248|   -4.372706|   -5.973930|
|         789|   -6.105446|   -4.429964|   -4.374976|   -5.975497|
|         790|   -6.106977|   -4.426207|   -4.377241|   -5.977255|
|         791|   -6.108622|   -4.421987|   -4.379523|   -5.979384|
|         792|   -6.110456|   -4.417321|   -4.381850|   -5.981843|
|         793|   -6.112439|   -4.412230|   -4.384242|   -5.984733|
|         794|   -6.114656|   -4.406760|   -4.386722|   -5.988041|
|         795|   -6.117041|   -4.400936|   -4.389311|   -5.991984|
|         796|   -6.119718|   -4.394781|   -4.392017|   -5.996376|
|         797|   -6.122620|   -4.388397|   -4.394864|   -6.001294|
|         798|   -6.125775|   -4.381806|   -4.397883|   -6.006743|
|         799|   -6.129178|   -4.375072|   -4.401091|   -6.012736|
|         800|   -6.132825|   -4.368261|   -4.404501|   -6.019257|
|         801|   -6.136709|   -4.361418|   -4.408147|   -6.026285|
|         802|   -6.140821|   -4.354608|   -4.412055|   -6.033773|
|         803|   -6.145154|   -4.347880|   -4.416222|   -6.041635|
|         804|   -6.149688|   -4.341281|   -4.420652|   -6.049815|
|         805|   -6.154418|   -4.334846|   -4.425320|   -6.058207|
|         806|   -6.159325|   -4.328594|   -4.430184|   -6.066788|
|         807|   -6.164389|   -4.322548|   -4.435182|   -6.075466|
|         808|   -6.169595|   -4.316714|   -4.440236|   -6.084149|
|         809|   -6.174919|   -4.311110|   -4.445233|   -6.092773|
|         810|   -6.180338|   -4.305737|   -4.450068|   -6.101239|
|         811|   -6.185821|   -4.300587|   -4.454638|   -6.109432|
|         812|   -6.191336|   -4.295663|   -4.458822|   -6.117278|
|         813|   -6.196852|   -4.290966|   -4.462519|   -6.124755|
|         814|   -6.202338|   -4.286507|   -4.465618|   -6.131843|
|         815|   -6.207772|   -4.282301|   -4.468079|   -6.138528|
|         816|   -6.213150|   -4.278363|   -4.469900|   -6.144748|
|         817|   -6.218435|   -4.274708|   -4.471126|   -6.150525|
|         818|   -6.223588|   -4.271337|   -4.471824|   -6.155903|
|         819|   -6.228605|   -4.268261|   -4.472154|   -6.160902|
|         820|   -6.233490|   -4.265531|   -4.472227|   -6.165597|
|         821|   -6.238276|   -4.263107|   -4.472237|   -6.170031|
|         822|   -6.242998|   -4.260979|   -4.472196|   -6.174323|
|         823|   -6.247679|   -4.259125|   -4.471971|   -6.178313|
|         824|   -6.252332|   -4.257520|   -4.471395|   -6.181929|
|         825|   -6.256938|   -4.256117|   -4.470386|   -6.185136|
|         826|   -6.261484|   -4.254858|   -4.468848|   -6.187691|
|         827|   -6.265881|   -4.253697|   -4.466815|   -6.189475|
|         828|   -6.270092|   -4.252598|   -4.464356|   -6.190463|
|         829|   -6.274051|   -4.251539|   -4.461562|   -6.190556|
|         830|   -6.277732|   -4.250527|   -4.458459|   -6.189738|
|         831|   -6.281139|   -4.249564|   -4.455057|   -6.188038|
|         832|   -6.284280|   -4.248689|   -4.451371|   -6.185451|
|         833|   -6.287215|   -4.247929|   -4.447477|   -6.181972|
|         834|   -6.290029|   -4.247310|   -4.443452|   -6.177768|
|         835|   -6.292714|   -4.246803|   -4.439376|   -6.172742|
|         836|   -6.295352|   -4.246398|   -4.435387|   -6.166906|
|         837|   -6.297899|   -4.246105|   -4.431629|   -6.160357|
|         838|   -6.300330|   -4.245924|   -4.428194|   -6.153188|
|         839|   -6.302573|   -4.245850|   -4.425102|   -6.145496|
|         840|   -6.304624|   -4.245870|   -4.422276|   -6.137364|
|         841|   -6.306385|   -4.245960|   -4.419604|   -6.128930|
|         842|   -6.307772|   -4.246135|   -4.416938|   -6.120318|
|         843|   -6.308764|   -4.246338|   -4.414177|   -6.111749|
|         844|   -6.309439|   -4.246550|   -4.411232|   -6.103234|
|         845|   -6.309935|   -4.246665|   -4.408110|   -6.094657|
|         846|   -6.310201|   -4.246622|   -4.404891|   -6.086004|
|         847|   -6.310243|   -4.246372|   -4.401787|   -6.077537|
|         848|   -6.310012|   -4.246000|   -4.399017|   -6.069570|
|         849|   -6.309452|   -4.245625|   -4.396722|   -6.062243|
|         850|   -6.309009|   -4.245395|   -4.394803|   -6.055573|
|         851|   -6.309168|   -4.245436|   -4.392830|   -6.049531|
|         852|   -6.309784|   -4.245635|   -4.391134|   -6.044484|
|         853|   -6.310783|   -4.245771|   -4.390773|   -6.040611|
|         854|   -6.312544|   -4.245726|   -4.391915|   -6.037561|
|         855|   -6.316021|   -4.245531|   -4.394191|   -6.034727|
|         856|   -6.321096|   -4.245543|   -4.397027|   -6.031951|
|         857|   -6.326152|   -4.246039|   -4.400027|   -6.029193|
|         858|   -6.330601|   -4.246876|   -4.403139|   -6.026069|
|         859|   -6.334806|   -4.247645|   -4.406229|   -6.022329|
|         860|   -6.338158|   -4.248118|   -4.408875|   -6.018027|
|         861|   -6.340025|   -4.248352|   -4.410798|   -6.013427|
|         862|   -6.340431|   -4.248468|   -4.412092|   -6.009051|
|         863|   -6.339693|   -4.248489|   -4.412777|   -6.005558|
|         864|   -6.338500|   -4.248366|   -4.412644|   -6.003279|
|         865|   -6.337366|   -4.247993|   -4.411867|   -6.001799|
|         866|   -6.336616|   -4.247420|   -4.410684|   -6.000264|
|         867|   -6.336071|   -4.246915|   -4.409603|   -5.998166|
|         868|   -6.335647|   -4.246787|   -4.409130|   -5.995560|
|         869|   -6.335281|   -4.247275|   -4.409037|   -5.992936|
|         870|   -6.335115|   -4.248092|   -4.408795|   -5.990867|
|         871|   -6.335837|   -4.248911|   -4.408752|   -5.989654|
|         872|   -6.338845|   -4.249617|   -4.409784|   -5.989172|
|         873|   -6.345001|   -4.250229|   -4.412458|   -5.989237|
|         874|   -6.354226|   -4.250826|   -4.416890|   -5.989654|
|         875|   -6.366051|   -4.251500|   -4.422788|   -5.990159|
|         876|   -6.379911|   -4.252281|   -4.429607|   -5.990530|
|         877|   -6.395087|   -4.253182|   -4.436728|   -5.990631|
|         878|   -6.410798|   -4.254211|   -4.443213|   -5.990433|
|         879|   -6.427273|   -4.255320|   -4.449042|   -5.989955|
|         880|   -6.443856|   -4.256455|   -4.454532|   -5.989225|
|         881|   -6.458974|   -4.257564|   -4.459326|   -5.988303|
|         882|   -6.472239|   -4.258573|   -4.463433|   -5.987248|
|         883|   -6.483876|   -4.259429|   -4.467019|   -5.986115|
|         884|   -6.494034|   -4.260110|   -4.470169|   -5.984946|
|         885|   -6.502670|   -4.260635|   -4.472836|   -5.983768|
|         886|   -6.509878|   -4.261009|   -4.474914|   -5.982610|
|         887|   -6.515924|   -4.261306|   -4.476301|   -5.981494|
|         888|   -6.521169|   -4.261595|   -4.476859|   -5.980434|
|         889|   -6.525901|   -4.261961|   -4.476422|   -5.979441|
|         890|   -6.530234|   -4.262604|   -4.474892|   -5.978513|
|         891|   -6.534104|   -4.263541|   -4.472282|   -5.977642|
|         892|   -6.537123|   -4.264727|   -4.469152|   -5.976827|
|         893|   -6.538879|   -4.265935|   -4.465880|   -5.976071|
|         894|   -6.539111|   -4.267038|   -4.462649|   -5.975377|
|         895|   -6.537668|   -4.267945|   -4.459431|   -5.974736|
|         896|   -6.534491|   -4.268578|   -4.456087|   -5.974134|
|         897|   -6.529604|   -4.268862|   -4.452341|   -5.973551|
|         898|   -6.523055|   -4.268729|   -4.447847|   -5.972965|
|         899|   -6.514984|   -4.268132|   -4.442400|   -5.972360|
|         900|   -6.506463|   -4.267071|   -4.435713|   -5.971752|
|         901|   -6.497546|   -4.265678|   -4.427924|   -5.971124|
|         902|   -6.488565|   -4.264044|   -4.419426|   -5.970461|
|         903|   -6.479892|   -4.262308|   -4.410482|   -5.969755|
|         904|   -6.471647|   -4.260630|   -4.401319|   -5.969018|
|         905|   -6.463755|   -4.259145|   -4.392131|   -5.968245|
|         906|   -6.455827|   -4.257860|   -4.383155|   -5.967422|
|         907|   -6.447221|   -4.256732|   -4.374639|   -5.966529|
|         908|   -6.437097|   -4.255565|   -4.366771|   -5.965519|
|         909|   -6.425220|   -4.254119|   -4.359322|   -5.964464|
|         910|   -6.411129|   -4.252350|   -4.352306|   -5.963418|
|         911|   -6.394271|   -4.250200|   -4.346546|   -5.962304|
|         912|   -6.374839|   -4.247740|   -4.342342|   -5.961130|
|         913|   -6.353944|   -4.245499|   -4.339675|   -5.959897|
|         914|   -6.332731|   -4.243996|   -4.338741|   -5.958666|
|         915|   -6.312507|   -4.243616|   -4.339713|   -5.957477|
|         916|   -6.294426|   -4.244521|   -4.342575|   -5.956319|
|         917|   -6.279315|   -4.246585|   -4.347080|   -5.955131|
|         918|   -6.267850|   -4.249536|   -4.352590|   -5.953897|
|         919|   -6.261340|   -4.253278|   -4.358253|   -5.952646|
|         920|   -6.260794|   -4.258823|   -4.363085|   -5.951401|
|         921|   -6.266563|   -4.267446|   -4.366333|   -5.950175|
|         922|   -6.274841|   -4.279679|   -4.367760|   -5.949169|
|         923|   -6.280633|   -4.292885|   -4.370425|   -5.948504|
|         924|   -6.283172|   -4.305008|   -4.376345|   -5.948077|
|         925|   -6.282958|   -4.315091|   -4.384148|   -5.947739|
|         926|   -6.280985|   -4.322887|   -4.392355|   -5.947372|
|         927|   -6.277872|   -4.329009|   -4.400523|   -5.946930|
|         928|   -6.274497|   -4.334353|   -4.407910|   -5.946395|
|         929|   -6.271038|   -4.339381|   -4.413685|   -5.945747|
|         930|   -6.267499|   -4.344181|   -4.417958|   -5.944996|
|         931|   -6.263798|   -4.349060|   -4.421094|   -5.944158|
|         932|   -6.259958|   -4.354037|   -4.423375|   -5.943245|
|         933|   -6.256128|   -4.359128|   -4.424949|   -5.942281|
|         934|   -6.252406|   -4.364353|   -4.425896|   -5.941300|
|         935|   -6.248879|   -4.369727|   -4.426282|   -5.940340|
|         936|   -6.245635|   -4.375203|   -4.426177|   -5.939432|
|         937|   -6.242753|   -4.380687|   -4.425674|   -5.938596|
|         938|   -6.240301|   -4.386070|   -4.424882|   -5.937840|
|         939|   -6.238307|   -4.391256|   -4.423875|   -5.937162|
|         940|   -6.236748|   -4.396161|   -4.422748|   -5.936565|
|         941|   -6.235544|   -4.400717|   -4.421511|   -5.936046|
|         942|   -6.234599|   -4.404898|   -4.420170|   -5.935605|
|         943|   -6.233803|   -4.408670|   -4.418688|   -5.935245|
|         944|   -6.233073|   -4.412005|   -4.417002|   -5.934970|
|         945|   -6.232368|   -4.414900|   -4.415068|   -5.934780|
|         946|   -6.231665|   -4.417367|   -4.412883|   -5.934666|
|         947|   -6.230954|   -4.419430|   -4.410439|   -5.934613|
|         948|   -6.230230|   -4.421131|   -4.407734|   -5.934601|
|         949|   -6.229486|   -4.422526|   -4.404786|   -5.934609|
|         950|   -6.228714|   -4.423681|   -4.401626|   -5.934616|
|         951|   -6.227904|   -4.424655|   -4.398279|   -5.934606|
|         952|   -6.227047|   -4.425511|   -4.394755|   -5.934565|
|         953|   -6.226142|   -4.426321|   -4.391057|   -5.934482|
|         954|   -6.225181|   -4.427110|   -4.387174|   -5.934348|
|         955|   -6.224192|   -4.427880|   -4.383098|   -5.934156|
|         956|   -6.223199|   -4.428623|   -4.378828|   -5.933906|
|         957|   -6.222203|   -4.429341|   -4.374393|   -5.933602|
|         958|   -6.221221|   -4.430068|   -4.369807|   -5.933245|
|         959|   -6.220274|   -4.430812|   -4.365102|   -5.932833|
|         960|   -6.219383|   -4.431571|   -4.360298|   -5.932365|
|         961|   -6.218554|   -4.432351|   -4.355411|   -5.931845|
|         962|   -6.217791|   -4.433164|   -4.350451|   -5.931276|
|         963|   -6.217094|   -4.433996|   -4.345439|   -5.930659|
|         964|   -6.216462|   -4.434830|   -4.340415|   -5.930000|
[...]
|        2796|   -6.643772|   -5.066238|   -4.941053|   -6.720067|
|        2797|   -6.643169|   -5.070811|   -4.939333|   -6.719576|
|        2798|   -6.642605|   -5.075202|   -4.937678|   -6.719094|
|        2799|   -6.642080|   -5.079390|   -4.936086|   -6.718622|
|        2800|   -6.641595|   -5.083359|   -4.934556|   -6.718160|
|        2801|   -6.641150|   -5.087093|   -4.933088|   -6.717706|
|        2802|   -6.640746|   -5.090573|   -4.931683|   -6.717264|
|        2803|   -6.640384|   -5.093784|   -4.930341|   -6.716842|
|        2804|   -6.640066|   -5.096713|   -4.929061|   -6.716436|
|        2805|   -6.639792|   -5.099344|   -4.927844|   -6.716041|
|        2806|   -6.639564|   -5.101666|   -4.926692|   -6.715658|
|        2807|   -6.639382|   -5.103669|   -4.925603|   -6.715284|
|        2808|   -6.639249|   -5.105343|   -4.924580|   -6.714921|
|        2809|   -6.639165|   -5.106680|   -4.923621|   -6.714565|
|        2810|   -6.639131|   -5.107675|   -4.922727|   -6.714218|
|        2811|   -6.639148|   -5.108324|   -4.921897|   -6.713877|
|        2812|   -6.639216|   -5.108624|   -4.921130|   -6.713541|
|        2813|   -6.639336|   -5.108577|   -4.920425|   -6.713211|
|        2814|   -6.639507|   -5.108182|   -4.919780|   -6.712884|
|        2815|   -6.639730|   -5.107443|   -4.919193|   -6.712559|
|        2816|   -6.640004|   -5.106362|   -4.918662|   -6.712234|
|        2817|   -6.640329|   -5.104946|   -4.918185|   -6.711907|
|        2818|   -6.640705|   -5.103201|   -4.917760|   -6.711580|
|        2819|   -6.641131|   -5.101138|   -4.917386|   -6.711249|
|        2820|   -6.641607|   -5.098767|   -4.917059|   -6.710913|
|        2821|   -6.642133|   -5.096098|   -4.916780|   -6.710570|
|        2822|   -6.642708|   -5.093145|   -4.916546|   -6.710222|
|        2823|   -6.643334|   -5.089921|   -4.916359|   -6.709891|
|        2824|   -6.644008|   -5.086440|   -4.916215|   -6.709555|
|        2825|   -6.644733|   -5.082718|   -4.916118|   -6.709209|
|        2826|   -6.645510|   -5.078770|   -4.916067|   -6.708857|
|        2827|   -6.646338|   -5.074611|   -4.916065|   -6.708498|
|        2828|   -6.647219|   -5.070258|   -4.916115|   -6.708132|
|        2829|   -6.648155|   -5.065727|   -4.916218|   -6.707768|
|        2830|   -6.649146|   -5.061034|   -4.916380|   -6.707415|
|        2831|   -6.650195|   -5.056194|   -4.916601|   -6.707061|
|        2832|   -6.651303|   -5.051226|   -4.916755|   -6.706722|
|        2833|   -6.652461|   -5.046135|   -4.916944|   -6.706388|
|        2834|   -6.653678|   -5.040932|   -4.917185|   -6.706058|
|        2835|   -6.654955|   -5.035633|   -4.917492|   -6.705735|
|        2836|   -6.656296|   -5.030252|   -4.917874|   -6.705422|
|        2837|   -6.657704|   -5.024803|   -4.918341|   -6.705128|
|        2838|   -6.659182|   -5.019295|   -4.918896|   -6.704847|
|        2839|   -6.660731|   -5.013742|   -4.919546|   -6.704578|
|        2840|   -6.662352|   -5.008153|   -4.920290|   -6.704323|
|        2841|   -6.664047|   -5.002538|   -4.921130|   -6.704081|
|        2842|   -6.665814|   -4.996906|   -4.922064|   -6.703854|
|        2843|   -6.667656|   -4.991265|   -4.923094|   -6.703643|
|        2844|   -6.669571|   -4.985623|   -4.924215|   -6.703446|
|        2845|   -6.671561|   -4.979987|   -4.925429|   -6.703266|
|        2846|   -6.673624|   -4.974362|   -4.926732|   -6.703100|
|        2847|   -6.675761|   -4.968755|   -4.928124|   -6.702949|
|        2848|   -6.677973|   -4.963172|   -4.929606|   -6.702812|
|        2849|   -6.680260|   -4.957616|   -4.931163|   -6.702690|
|        2850|   -6.682620|   -4.952092|   -4.932804|   -6.702582|
|        2851|   -6.685054|   -4.946606|   -4.934531|   -6.702486|
|        2852|   -6.687563|   -4.941161|   -4.936345|   -6.702402|
|        2853|   -6.690145|   -4.935762|   -4.938246|   -6.702330|
|        2854|   -6.692803|   -4.930413|   -4.940237|   -6.702273|
|        2855|   -6.695534|   -4.925118|   -4.942316|   -6.702245|
|        2856|   -6.698340|   -4.919879|   -4.944484|   -6.702228|
|        2857|   -6.701220|   -4.914701|   -4.946741|   -6.702222|
|        2858|   -6.704173|   -4.909585|   -4.949085|   -6.702228|
|        2859|   -6.707199|   -4.904535|   -4.951516|   -6.702245|
|        2860|   -6.710296|   -4.899551|   -4.954032|   -6.702272|
|        2861|   -6.713465|   -4.894636|   -4.956632|   -6.702310|
|        2862|   -6.716703|   -4.889789|   -4.959315|   -6.702356|
|        2863|   -6.720010|   -4.885012|   -4.962079|   -6.702411|
|        2864|   -6.723386|   -4.880305|   -4.964924|   -6.702473|
|        2865|   -6.726829|   -4.875669|   -4.967845|   -6.702540|
|        2866|   -6.730337|   -4.871103|   -4.970841|   -6.702611|
|        2867|   -6.733911|   -4.866608|   -4.973909|   -6.702734|
|        2868|   -6.737547|   -4.862184|   -4.977046|   -6.703188|
|        2869|   -6.741246|   -4.857829|   -4.980250|   -6.703792|
|        2870|   -6.745008|   -4.853545|   -4.983518|   -6.704434|
|        2871|   -6.748832|   -4.849331|   -4.986848|   -6.705122|
|        2872|   -6.752716|   -4.845185|   -4.990237|   -6.705827|
|        2873|   -6.756661|   -4.841108|   -4.993684|   -6.706532|
|        2874|   -6.760666|   -4.837098|   -4.997188|   -6.707219|
|        2875|   -6.764732|   -4.833156|   -5.000748|   -6.707894|
|        2876|   -6.768860|   -4.829279|   -5.004363|   -6.708562|
|        2877|   -6.773050|   -4.825469|   -5.008035|   -6.709217|
|        2878|   -6.777303|   -4.821724|   -5.011763|   -6.709853|
|        2879|   -6.781620|   -4.818043|   -5.015547|   -6.710463|
|        2880|   -6.786004|   -4.814425|   -5.019389|   -6.711045|
|        2881|   -6.790454|   -4.810871|   -5.023289|   -6.711599|
|        2882|   -6.794973|   -4.807379|   -5.027249|   -6.712126|
|        2883|   -6.799564|   -4.803949|   -5.031269|   -6.712628|
|        2884|   -6.804228|   -4.800579|   -5.035353|   -6.713102|
|        2885|   -6.808968|   -4.797271|   -5.039501|   -6.713546|
|        2886|   -6.813786|   -4.794022|   -5.043716|   -6.713958|
|        2887|   -6.818685|   -4.790833|   -5.048000|   -6.714339|
|        2888|   -6.823668|   -4.787703|   -5.052355|   -6.714687|
|        2889|   -6.828737|   -4.784632|   -5.056785|   -6.715003|
|        2890|   -6.833896|   -4.781620|   -5.061290|   -6.715288|
|        2891|   -6.839149|   -4.778667|   -5.065874|   -6.715586|
|        2892|   -6.844496|   -4.775775|   -5.070539|   -6.715896|
|        2893|   -6.849943|   -4.772943|   -5.075287|   -6.716172|
|        2894|   -6.855491|   -4.770169|   -5.080119|   -6.716408|
|        2895|   -6.861142|   -4.767451|   -5.085038|   -6.716622|
|        2896|   -6.866897|   -4.764787|   -5.090046|   -6.716821|
|        2897|   -6.872755|   -4.762177|   -5.095145|   -6.717007|
|        2898|   -6.878719|   -4.759617|   -5.100336|   -6.717182|
|        2899|   -6.884788|   -4.757108|   -5.105622|   -6.717345|
|        2900|   -6.890963|   -4.754648|   -5.111005|   -6.717498|
|        2901|   -6.897247|   -4.752239|   -5.116485|   -6.717640|
|        2902|   -6.903643|   -4.749881|   -5.122065|   -6.717773|
|        2903|   -6.910155|   -4.747577|   -5.127747|   -6.717897|
|        2904|   -6.916790|   -4.745331|   -5.133533|   -6.718011|
|        2905|   -6.923552|   -4.743145|   -5.139423|   -6.718116|
|        2906|   -6.930444|   -4.741020|   -5.145420|   -6.718211|
|        2907|   -6.937465|   -4.738961|   -5.151523|   -6.718296|
|        2908|   -6.944620|   -4.736969|   -5.157732|   -6.718370|
|        2909|   -6.951909|   -4.735045|   -5.164045|   -6.718433|
|        2910|   -6.959332|   -4.733188|   -5.170459|   -6.718483|
|        2911|   -6.966887|   -4.731398|   -5.176970|   -6.718520|
|        2912|   -6.974572|   -4.729675|   -5.183573|   -6.718543|
|        2913|   -6.982383|   -4.728020|   -5.190261|   -6.718549|
|        2914|   -6.990314|   -4.726432|   -5.197026|   -6.718538|
|        2915|   -6.998362|   -4.724909|   -5.203858|   -6.718509|
|        2916|   -7.006520|   -4.723456|   -5.210747|   -6.718459|
|        2917|   -7.014788|   -4.722070|   -5.217680|   -6.718430|
|        2918|   -7.023148|   -4.720752|   -5.224642|   -6.718475|
|        2919|   -7.031585|   -4.719502|   -5.231621|   -6.718548|
|        2920|   -7.040090|   -4.718316|   -5.238597|   -6.718612|
|        2921|   -7.048640|   -4.717197|   -5.245556|   -6.718647|
|        2922|   -7.057220|   -4.716141|   -5.252479|   -6.718650|
|        2923|   -7.065812|   -4.715148|   -5.259345|   -6.718623|
|        2924|   -7.074390|   -4.714222|   -5.266138|   -6.718566|
|        2925|   -7.082954|   -4.713357|   -5.272817|   -6.718477|
|        2926|   -7.091465|   -4.712554|   -5.279367|   -6.718356|
|        2927|   -7.099890|   -4.711818|   -5.285783|   -6.718202|
|        2928|   -7.108211|   -4.711145|   -5.292037|   -6.718014|
|        2929|   -7.116385|   -4.710538|   -5.298108|   -6.717793|
|        2930|   -7.124399|   -4.709998|   -5.303975|   -6.717538|
|        2931|   -7.132216|   -4.709522|   -5.309607|   -6.717251|
|        2932|   -7.139795|   -4.709115|   -5.314988|   -6.716932|
|        2933|   -7.147120|   -4.708775|   -5.320088|   -6.716581|
|        2934|   -7.154141|   -4.708502|   -5.324884|   -6.716199|
|        2935|   -7.160827|   -4.708300|   -5.329358|   -6.715788|
|        2936|   -7.167150|   -4.708162|   -5.333483|   -6.715350|
|        2937|   -7.173052|   -4.708095|   -5.337246|   -6.714905|
|        2938|   -7.178517|   -4.708096|   -5.340631|   -6.714454|
|        2939|   -7.183522|   -4.708161|   -5.343616|   -6.713980|
|        2940|   -7.188010|   -4.708298|   -5.346206|   -6.713483|
|        2941|   -7.191978|   -4.708500|   -5.348386|   -6.712966|
|        2942|   -7.195386|   -4.708767|   -5.350151|   -6.712431|
|        2943|   -7.198218|   -4.709103|   -5.351510|   -6.711880|
|        2944|   -7.200473|   -4.709501|   -5.352461|   -6.711316|
|        2945|   -7.202112|   -4.709963|   -5.353012|   -6.710738|
|        2946|   -7.203143|   -4.710489|   -5.353181|   -6.710149|
|        2947|   -7.203576|   -4.711073|   -5.352971|   -6.709549|
|        2948|   -7.203390|   -4.711720|   -5.352405|   -6.708941|
|        2949|   -7.202625|   -4.712428|   -5.351495|   -6.708327|
|        2950|   -7.201290|   -4.713191|   -5.350247|   -6.707715|
|        2951|   -7.199376|   -4.714014|   -5.348685|   -6.707112|
|        2952|   -7.196937|   -4.714892|   -5.346833|   -6.706515|
|        2953|   -7.193990|   -4.715823|   -5.344690|   -6.705926|
|        2954|   -7.190559|   -4.716809|   -5.342299|   -6.705342|
|        2955|   -7.186679|   -4.717846|   -5.339653|   -6.704764|
|        2956|   -7.182371|   -4.718932|   -5.336757|   -6.704190|
|        2957|   -7.177673|   -4.720068|   -5.333653|   -6.703619|
|        2958|   -7.172609|   -4.721250|   -5.330322|   -6.703050|
|        2959|   -7.167205|   -4.722476|   -5.326781|   -6.702480|
|        2960|   -7.161496|   -4.723748|   -5.323065|   -6.701907|
|        2961|   -7.155523|   -4.725062|   -5.319174|   -6.701329|
|        2962|   -7.149294|   -4.726416|   -5.315122|   -6.700745|
|        2963|   -7.142833|   -4.727812|   -5.310931|   -6.700151|
|        2964|   -7.136179|   -4.729244|   -5.306610|   -6.699547|
|        2965|   -7.129343|   -4.730714|   -5.302174|   -6.698928|
|        2966|   -7.122348|   -4.732222|   -5.297647|   -6.698294|
|        2967|   -7.115222|   -4.733764|   -5.293038|   -6.697641|
|        2968|   -7.107974|   -4.735341|   -5.288361|   -6.696969|
|        2969|   -7.100620|   -4.736953|   -5.283639|   -6.696276|
|        2970|   -7.093182|   -4.738597|   -5.278879|   -6.695561|
|        2971|   -7.085670|   -4.740274|   -5.274094|   -6.694823|
|        2972|   -7.078095|   -4.741985|   -5.269302|   -6.694062|
|        2973|   -7.070475|   -4.743728|   -5.264511|   -6.693278|
|        2974|   -7.062818|   -4.745502|   -5.259730|   -6.692471|
|        2975|   -7.055128|   -4.747310|   -5.254974|   -6.691641|
|        2976|   -7.047421|   -4.749150|   -5.250250|   -6.690789|
|        2977|   -7.039706|   -4.751021|   -5.245561|   -6.689918|
|        2978|   -7.031983|   -4.752927|   -5.240919|   -6.689028|
|        2979|   -7.024266|   -4.754866|   -5.236333|   -6.688123|
|        2980|   -7.016567|   -4.756839|   -5.231804|   -6.687203|
|        2981|   -7.008887|   -4.758848|   -5.227339|   -6.686304|
|        2982|   -7.001236|   -4.760894|   -5.222947|   -6.685404|
|        2983|   -6.993622|   -4.762977|   -5.218629|   -6.684501|
|        2984|   -6.986049|   -4.765099|   -5.214386|   -6.683598|
|        2985|   -6.978523|   -4.767260|   -5.210227|   -6.682698|
|        2986|   -6.971050|   -4.769462|   -5.206157|   -6.681804|
|        2987|   -6.963638|   -4.771705|   -5.202176|   -6.680920|
|        2988|   -6.956287|   -4.773992|   -5.198288|   -6.680051|
|        2989|   -6.949005|   -4.776322|   -5.194497|   -6.679201|
|        2990|   -6.941797|   -4.778695|   -5.190805|   -6.678374|
|        2991|   -6.934664|   -4.781113|   -5.187212|   -6.677574|
|        2992|   -6.927612|   -4.783575|   -5.183725|   -6.676805|
|        2993|   -6.920645|   -4.786084|   -5.180344|   -6.676071|
|        2994|   -6.913767|   -4.788638|   -5.177068|   -6.675375|
|        2995|   -6.906979|   -4.791239|   -5.173900|   -6.674720|
|        2996|   -6.900285|   -4.793887|   -5.170838|   -6.674110|
|        2997|   -6.893687|   -4.796581|   -5.167884|   -6.673549|
|        2998|   -6.887190|   -4.799322|   -5.165036|   -6.673038|
|        2999|   -6.880794|   -4.802111|   -5.162296|   -6.672581|
|        3000|   -6.874502|   -4.804946|   -5.159663|   -6.672180|
+-----------------------------------------------------------------------+
|        File Writing Summary       |              Filename             |
+-----------------------------------------------------------------------+
|SU2 restart                        |restart_venturi_mixturedensity_30kW_fine_test.dat|
|                                   |                     (774.821 MB/s)|
|Paraview                           |flow_venturi_mixturedensity_30kW_fine_test_00003000.vtu|
|                                   |                      (7.0133 MB/s)|
|Paraview surface                   |surface_flow_venturi_mixturedensity_30kW_fine_test.vtu|
|                                   |                     (1.99396 MB/s)|
+-----------------------------------------------------------------------+
+----------------------------------------------------------------+
|  Inner_Iter|      rms[P]|      rms[U]|      rms[V]|      rms[c]|
+----------------------------------------------------------------+
|        3001|   -6.868317|   -4.807826|   -5.157135|   -6.671838|
|        3002|   -6.862239|   -4.810753|   -5.154713|   -6.671555|
|        3003|   -6.856270|   -4.813726|   -5.152397|   -6.671336|
|        3004|   -6.850412|   -4.816744|   -5.150183|   -6.671181|
|        3005|   -6.844665|   -4.819807|   -5.148069|   -6.671091|
|        3006|   -6.839030|   -4.822914|   -5.146055|   -6.671069|
|        3007|   -6.833508|   -4.826064|   -5.144136|   -6.671114|
|        3008|   -6.828098|   -4.829257|   -5.142313|   -6.671227|
|        3009|   -6.822802|   -4.832491|   -5.140583|   -6.671408|
|        3010|   -6.817618|   -4.835767|   -5.138943|   -6.671660|
|        3011|   -6.812547|   -4.839084|   -5.137392|   -6.671982|
|        3012|   -6.807588|   -4.842440|   -5.135925|   -6.672372|
|        3013|   -6.802739|   -4.845835|   -5.134543|   -6.672830|
|        3014|   -6.798000|   -4.849268|   -5.133243|   -6.673355|
|        3015|   -6.793369|   -4.852740|   -5.132024|   -6.673947|
|        3016|   -6.788847|   -4.856249|   -5.130882|   -6.674604|
|        3017|   -6.784431|   -4.859795|   -5.129819|   -6.675326|
|        3018|   -6.780119|   -4.863378|   -5.128832|   -6.676110|
|        3019|   -6.775910|   -4.866996|   -5.127919|   -6.676957|
|        3020|   -6.771802|   -4.870649|   -5.127080|   -6.677865|
|        3021|   -6.767794|   -4.874336|   -5.126314|   -6.678832|
|        3022|   -6.763882|   -4.878057|   -5.125619|   -6.679857|
|        3023|   -6.760066|   -4.881812|   -5.124994|   -6.680937|
|        3024|   -6.756341|   -4.885602|   -5.124438|   -6.682072|
|        3025|   -6.752708|   -4.889426|   -5.123951|   -6.683259|
|        3026|   -6.749162|   -4.893284|   -5.123530|   -6.684496|
|        3027|   -6.745701|   -4.897175|   -5.123175|   -6.685781|
|        3028|   -6.742323|   -4.901102|   -5.122885|   -6.687113|
|        3029|   -6.739026|   -4.905063|   -5.122660|   -6.688488|
|        3030|   -6.735808|   -4.909061|   -5.122500|   -6.689904|
|        3031|   -6.732665|   -4.913094|   -5.122401|   -6.691359|
|        3032|   -6.729595|   -4.917164|   -5.122363|   -6.692849|
|        3033|   -6.726596|   -4.921271|   -5.122385|   -6.694371|
|        3034|   -6.723664|   -4.925417|   -5.122465|   -6.695924|
|        3035|   -6.720798|   -4.929603|   -5.122605|   -6.697504|
|        3036|   -6.717997|   -4.933830|   -5.122793|   -6.699110|
|        3037|   -6.715257|   -4.938096|   -5.123015|   -6.700738|
|        3038|   -6.712574|   -4.942405|   -5.123285|   -6.702385|
|        3039|   -6.709947|   -4.946758|   -5.123602|   -6.704048|
|        3040|   -6.707373|   -4.951157|   -5.123968|   -6.705724|
|        3041|   -6.704851|   -4.955602|   -5.124384|   -6.707409|
|        3042|   -6.702381|   -4.960094|   -5.124851|   -6.709100|
|        3043|   -6.699960|   -4.964637|   -5.125370|   -6.710795|
|        3044|   -6.697588|   -4.969232|   -5.125941|   -6.712490|
|        3045|   -6.695263|   -4.973879|   -5.126561|   -6.714182|
|        3046|   -6.692982|   -4.978580|   -5.127229|   -6.715867|
|        3047|   -6.690744|   -4.983336|   -5.127944|   -6.717543|
|        3048|   -6.688547|   -4.988149|   -5.128705|   -6.719206|
|        3049|   -6.686391|   -4.993021|   -5.129513|   -6.720852|
|        3050|   -6.684276|   -4.997952|   -5.130369|   -6.722481|
|        3051|   -6.682199|   -5.002944|   -5.131269|   -6.724091|
|        3052|   -6.680160|   -5.007997|   -5.132212|   -6.725681|
|        3053|   -6.678157|   -5.013115|   -5.133196|   -6.727245|
|        3054|   -6.676190|   -5.018297|   -5.134222|   -6.728781|
|        3055|   -6.674258|   -5.023544|   -5.135290|   -6.730286|
|        3056|   -6.672362|   -5.028858|   -5.136402|   -6.731758|
|        3057|   -6.670502|   -5.034238|   -5.137555|   -6.733198|
|        3058|   -6.668675|   -5.039688|   -5.138749|   -6.734602|
|        3059|   -6.666883|   -5.045206|   -5.139981|   -6.735969|
|        3060|   -6.665125|   -5.050793|   -5.141252|   -6.737300|
|        3061|   -6.663400|   -5.056448|   -5.142562|   -6.738599|
|        3062|   -6.661708|   -5.062171|   -5.143910|   -6.739855|
|        3063|   -6.660050|   -5.067965|   -5.145297|   -6.741066|
|        3064|   -6.658426|   -5.073827|   -5.146720|   -6.742239|
|        3065|   -6.656835|   -5.079758|   -5.148181|   -6.743377|
|        3066|   -6.655278|   -5.085756|   -5.149679|   -6.744477|
|        3067|   -6.653755|   -5.091821|   -5.151212|   -6.745534|
|        3068|   -6.652266|   -5.097952|   -5.152782|   -6.746554|
|        3069|   -6.650810|   -5.104146|   -5.154385|   -6.747538|
|        3070|   -6.649388|   -5.110403|   -5.156020|   -6.748484|
|        3071|   -6.647999|   -5.116720|   -5.157687|   -6.749389|
|        3072|   -6.646644|   -5.123096|   -5.159387|   -6.750249|
|        3073|   -6.645324|   -5.129527|   -5.161120|   -6.751068|
|        3074|   -6.644040|   -5.136009|   -5.162810|   -6.751843|
|        3075|   -6.642788|   -5.142537|   -5.164431|   -6.752571|
|        3076|   -6.641560|   -5.149112|   -5.166037|   -6.753261|
|        3077|   -6.640363|   -5.155734|   -5.167641|   -6.753905|
|        3078|   -6.639199|   -5.162400|   -5.169253|   -6.754512|
