scsub> Executing:  'cd /home/hem1dev/Codes/SU2_Github_Mark_Test/SU2/Venturi'


WARNING: CONV_CRITERIA is deprecated. SU2 will choose the criteria automatically based on the CONV_FIELD.
That is, RESIDUAL for any RMS_* BGS_* value, and CAUCHY for coefficients such as DRAG etc.


-------------------------------------------------------------------------
|    ___ _   _ ___                                                      |
|   / __| | | |_  )   Release 7.1.1 "Blackbird"                         |
|   \__ \ |_| |/ /                                                      |
|   |___/\___//___|   Suite (Computational Fluid Dynamics Code)         |
|                                                                       |
-------------------------------------------------------------------------
| SU2 Project Website: https://su2code.github.io                        |
|                                                                       |
| The SU2 Project is maintained by the SU2 Foundation                   |
| (http://su2foundation.org)                                            |
-------------------------------------------------------------------------
| Copyright 2012-2021, SU2 Contributors                                 |
|                                                                       |
| SU2 is free software; you can redistribute it and/or                  |
| modify it under the terms of the GNU Lesser General Public            |
| License as published by the Free Software Foundation; either          |
| version 2.1 of the License, or (at your option) any later version.    |
|                                                                       |
| SU2 is distributed in the hope that it will be useful,                |
| but WITHOUT ANY WARRANTY; without even the implied warranty of        |
| MERCHANTABILITY or FITNESS FOR A PARTICULAR PURPOSE. See the GNU      |
| Lesser General Public License for more details.                       |
|                                                                       |
| You should have received a copy of the GNU Lesser General Public      |
| License along with SU2. If not, see <http://www.gnu.org/licenses/>.   |
-------------------------------------------------------------------------


WARNING: CONV_CRITERIA is deprecated. SU2 will choose the criteria automatically based on the CONV_FIELD.
That is, RESIDUAL for any RMS_* BGS_* value, and CAUCHY for coefficients such as DRAG etc.


Parsing config file for zone 0


WARNING: CONV_CRITERIA is deprecated. SU2 will choose the criteria automatically based on the CONV_FIELD.
That is, RESIDUAL for any RMS_* BGS_* value, and CAUCHY for coefficients such as DRAG etc.


----------------- Physical Case Definition ( Zone 0 ) -------------------
Incompressible RANS equations.
Turbulence model: Menter's SST
Hybrid RANS/LES: No Hybrid RANS/LES
No restart solution, use the values at infinity (freestream).
Dimensional simulation.
The reference area is 1 m^2.
The semi-span will be computed using the max y(3D) value.
The reference length is 1 m.
Input mesh file name: SmallBoxVerification.su2

--------------- Space Numerical Integration ( Zone 0 ) ------------------
Flux difference splitting (FDS) upwind scheme for the flow inviscid terms.
Second order integration in space, with slope limiter.
No slope-limiting method. 
Average of gradients with correction (viscous flow terms).
Average of gradients with correction (viscous turbulence terms).
Gradient for upwind reconstruction: Green-Gauss.
Gradient for viscous and source terms: Green-Gauss.

--------------- Time Numerical Integration  ( Zone 0 ) ------------------
Local time stepping (steady state simulation).
Euler implicit method for the flow equations.
FGMRES is used for solving the linear system.
Using a ILU(0) preconditioning.
Convergence criteria of the linear solver: 1e-08.
Max number of linear iterations: 50.
No CFL adaptation.
Courant-Friedrichs-Lewy number:      100
Euler implicit time integration for the turbulence model.

------------------ Convergence Criteria  ( Zone 0 ) ---------------------
Maximum number of solver subiterations: 20000.
Begin convergence monitoring at iteration 10.
Residual minimum value: 1e-10.
Cauchy series min. value: 1e-06.
Number of Cauchy elements: 100.
Begin windowed time average at iteration 0.

-------------------- Output Information ( Zone 0 ) ----------------------
Writing solution files every 1000 iterations.
Writing the convergence history file every 1 inner iterations.
Writing the screen convergence history every 1 inner iterations.
The tabular file format is CSV (.csv).
Convergence history file name: history_smallbox_turb_wilke.
Forces breakdown file name: forces_breakdown.dat.
Surface file name: surface_verification_mixtureviscosity_smallbox_turb_wilke.
Volume file name: flow_verification_mixtureviscosity_smallbox_turb_wilke.
Restart file name: restart_verification_mixtureviscosity_smallbox_turb_wilke.dat.

------------- Config File Boundary Information ( Zone 0 ) ---------------
+-----------------------------------------------------------------------+
|                        Marker Type|                        Marker Name|
+-----------------------------------------------------------------------+
|                     Symmetry plane|                               wall|
+-----------------------------------------------------------------------+
|                     Inlet boundary|                      inlet_methane|
|                                   |                          inlet_air|
+-----------------------------------------------------------------------+
|                    Outlet boundary|                             outlet|
+-----------------------------------------------------------------------+

-------------------- Output Preprocessing ( Zone 0 ) --------------------
Screen output fields: INNER_ITER, RMS_PRESSURE, RMS_VELOCITY-X, RMS_VELOCITY-Y, RMS_PASSIVE_SCALAR
History output group(s): RMS_RES, AERO_COEFF, FLOW_COEFF
Convergence field(s): RMS_TEMPERATURE, RMS_PRESSURE, RMS_VELOCITY-X, RMS_VELOCITY-Y, RMS_TKE, RMS_DISSIPATION
Warning: No (valid) fields chosen for time convergence monitoring. Time convergence monitoring inactive.
  Info: Ignoring the following volume output fields/groups:
  SOURCE, LOOKUP
Volume output fields: DENSITY, SOLUTION, PRIMITIVE, RESIDUAL, COORDINATES

------------------- Geometry Preprocessing ( Zone 0 ) -------------------
Two dimensional problem.
380 grid points before partitioning.
342 volume elements before partitioning.
4 surface markers.
38 boundary elements in index 0 (Marker = wall).
18 boundary elements in index 1 (Marker = outlet).
9 boundary elements in index 2 (Marker = inlet_air).
9 boundary elements in index 3 (Marker = inlet_methane).
Executing the partitioning functions.
Building the graph adjacency structure.
Calling ParMETIS... graph partitioning complete (480 edge cuts).
Distributing ParMETIS coloring.
Rebalancing vertices.
Rebalancing volume element connectivity.
Rebalancing markers and surface elements.
1802 vertices including ghost points. 
914 interior elements including halo cells. 
914 quadrilaterals.
Establishing MPI communication patterns.
Setting point connectivity.
Renumbering points (Reverse Cuthill McKee Ordering).
Recomputing point connectivity.
Setting element connectivity.
Checking the numerical grid orientation.
There has been a re-orientation of 914 QUADRILATERAL volume elements.
There has been a re-orientation of 121 LINE surface elements.
Identifying edges and vertices.
Setting the control volume structure.
Area of the computational grid: 0.267251.
Searching for the closest normal neighbors to the surfaces.
Storing a mapping from global to local point index.
Compute the surface curvature.
Max K: 37.7901. Mean K: 3.82684. Standard deviation K: 11.4005.
Checking for periodicity.
Computing mesh quality statistics for the dual control volumes.
+--------------------------------------------------------------+
|           Mesh Quality Metric|        Minimum|        Maximum|
+--------------------------------------------------------------+
|    Orthogonality Angle (deg.)|             90|             90|
|     CV Face Area Aspect Ratio|        4.73684|        18.9474|
|           CV Sub-Volume Ratio|              1|              1|
+--------------------------------------------------------------+
Finding max control volume width.
Communicating number of neighbors.
Wetted area = 0 m.
Area projection in the x-plane = 0 m, y-plane = 0 m.
Max. coordinate in the x-direction = -1e+10 m, y-direction = -1e+10 m.
Min. coordinate in the x-direction = 1e+10 m, y-direction = 1e+10 m.
Checking if Euler & Symmetry markers are straight/plane:
Boundary marker wall is a single straight.
Computing wall distances.

-------------------- Solver Preprocessing ( Zone 0 ) --------------------
Incompressible flow: rho_ref, vel_ref, temp_ref, p_ref
are set to 1.0 in order to perform a dimensional calculation.
Force coefficients computed using initial values.
The reference area for force coeffs. is 1 m^2.
The reference length for force coeffs. is 1 m.
The pressure is decomposed into thermodynamic and dynamic components.
The initial value of the dynamic pressure is 0.
Mach number: 0, computed using fluid speed of sound.
For external flows, the initial state is imposed at the far-field.
Angle of attack (deg): 0, computed using the initial velocity.
Side slip angle (deg): 0, computed using the initial velocity.
Reynolds number per meter: 66110.8, computed using initial values.
Reynolds number is a byproduct of inputs only (not used internally).
SI units only. The grid should be dimensional (meters).
Energy equation is active and coupled for variable density.

-- Models:
+------------------------------------------------------------------------------+
|          Viscosity Model|        Conductivity Model|              Fluid Model|
+------------------------------------------------------------------------------+
|               SUTHERLAND|          CONSTANT_PRANDTL|+------------------------------------------------------------------------------+
-- Fluid properties:
+------------------------------------------------------------------------------+
|                  Name|    Dim. value|    Ref. value|      Unit|Non-dim. value|
+------------------------------------------------------------------------------+
|        Ref. Viscosity|     1.716e-05|             1|   N.s/m^2|     1.716e-05|
|      Sutherland Temp.|        273.15|             1|         K|        273.15|
|     Sutherland Const.|         110.4|             1|         K|         110.4|
+------------------------------------------------------------------------------+
|        Prandtl (Lam.)|             -|             -|         -|          0.72|
|       Prandtl (Turb.)|             -|             -|         -|           0.9|
+------------------------------------------------------------------------------+
-- Initial and free-stream conditions:
+------------------------------------------------------------------------------+
|                  Name|    Dim. value|    Ref. value|      Unit|Non-dim. value|
+------------------------------------------------------------------------------+
|      Dynamic Pressure|             0|             1|        Pa|             0|
|        Total Pressure|        0.6026|             1|        Pa|        0.6026|
|               Density|        1.2052|             1|    kg/m^3|        1.2052|
|           Temperature|        293.15|             1|         K|        293.15|
|            Velocity-X|             1|             1|       m/s|             1|
|            Velocity-Y|             0|             1|       m/s|             0|
|    Velocity Magnitude|             1|             1|       m/s|             1|
+------------------------------------------------------------------------------+
|             Viscosity|     1.823e-05|             1|   N.s/m^2|     1.823e-05|
|          Conductivity|             -|             1|   W/m^2.K|             -|
|     Turb. Kin. Energy|       0.00375|             1|   m^2/s^2|       0.00375|
|     Spec. Dissipation|       24.7916|             1|       1/s|       24.7916|
+------------------------------------------------------------------------------+
|           Mach Number|             -|             -|         -|             0|
|       Reynolds Number|             -|             -|         -|       66110.8|
+------------------------------------------------------------------------------+
Initialize Jacobian structure (Navier-Stokes). MG level: 0.
Initialize Jacobian structure (passive scalar model).
Initialize Jacobian structure (SST model).

------------------- Numerics Preprocessing ( Zone 0 ) -------------------

----------------- Integration Preprocessing ( Zone 0 ) ------------------

------------------- Iteration Preprocessing ( Zone 0 ) ------------------
Euler/Navier-Stokes/RANS fluid iteration.

------------------------------ Begin Solver -----------------------------

Simulation Run using the Single-zone Driver
Initializing passive scalar (initial condition).
initialization = 1 1
CSysSolve::FGMRES(): system solved by initial guess.
CSysSolve::FGMRES(): system solved by initial guess.
+----------------------------------------------------------------+
|  Inner_Iter|      rms[P]|      rms[U]|      rms[V]|      rms[c]|
+----------------------------------------------------------------+
|           0|  -18.431063|  -18.169729|  -20.054313|  -18.326421|
|           1|   -3.448290|   -3.448290|  -18.431661|   -3.361562|
|           2|   -3.454723|   -3.341059|   -3.157858|   -3.367429|
|           3|   -3.623976|   -3.466685|   -3.334177|   -3.399545|
|           4|   -3.554073|   -3.385922|   -3.258602|   -3.445471|
|           5|   -3.615341|   -3.390846|   -3.303694|   -3.472364|
|           6|   -3.731832|   -3.446465|   -3.423670|   -3.496368|
|           7|   -3.764080|   -3.491700|   -3.458348|   -3.521882|
|           8|   -3.850627|   -3.547201|   -3.566708|   -3.548990|
|           9|   -3.984714|   -3.618368|   -3.747297|   -3.565378|
|          10|   -4.055216|   -3.675369|   -3.797639|   -3.577653|
|          11|   -4.116264|   -3.709587|   -3.831954|   -3.588987|
|          12|   -4.116366|   -3.729748|   -3.777811|   -3.605777|
|          13|   -4.029514|   -3.733621|   -3.647764|   -3.639262|
|          14|   -3.966024|   -3.731238|   -3.571050|   -3.694432|
|          15|   -3.943692|   -3.732657|   -3.550250|   -3.771744|
|          16|   -3.941393|   -3.740786|   -3.556539|   -3.868219|
|          17|   -3.938502|   -3.758760|   -3.561939|   -3.974746|
|          18|   -3.934802|   -3.789352|   -3.564545|   -4.076149|
|          19|   -3.933835|   -3.824286|   -3.569554|   -4.158808|
|          20|   -3.926191|   -3.845226|   -3.569650|   -4.225303|
|          21|   -3.907993|   -3.842217|   -3.544347|   -4.305588|
|          22|   -3.894604|   -3.831669|   -3.530880|   -4.426848|
|          23|   -3.897744|   -3.822897|   -3.540217|   -4.598508|
|          24|   -3.923905|   -3.825709|   -3.577391|   -4.741466|
|          25|   -3.973503|   -3.845771|   -3.640124|   -4.701666|
|          26|   -4.045068|   -3.883959|   -3.724996|   -4.598321|
|          27|   -4.135873|   -3.937275|   -3.830478|   -4.509825|
|          28|   -4.233314|   -3.998264|   -3.937207|   -4.439270|
|          29|   -4.301384|   -4.057671|   -4.015173|   -4.386024|
|          30|   -4.305115|   -4.106955|   -4.034288|   -4.352040|
|          31|   -4.263422|   -4.140047|   -4.010489|   -4.338160|
|          32|   -4.211318|   -4.150385|   -3.962199|   -4.319224|
|          33|   -4.174432|   -4.144248|   -3.915791|   -4.287693|
|          34|   -4.156833|   -4.127982|   -3.893152|   -4.269944|
|          35|   -4.140740|   -4.103551|   -3.879955|   -4.277347|
|          36|   -4.125242|   -4.086699|   -3.870004|   -4.284898|
|          37|   -4.106383|   -4.082035|   -3.847069|   -4.247243|
|          38|   -4.084039|   -4.082819|   -3.815494|   -4.222738|
|          39|   -4.069671|   -4.085324|   -3.790474|   -4.231460|
|          40|   -4.080979|   -4.100693|   -3.797116|   -4.275697|
|          41|   -4.124675|   -4.142029|   -3.841250|   -4.333945|
|          42|   -4.184579|   -4.201056|   -3.901915|   -4.369658|
|          43|   -4.217645|   -4.225793|   -3.938889|   -4.381198|
|          44|   -4.213600|   -4.191971|   -3.943536|   -4.403189|
|          45|   -4.213237|   -4.155403|   -3.952354|   -4.454333|
|          46|   -4.243963|   -4.154621|   -3.987878|   -4.528357|
|          47|   -4.311113|   -4.194941|   -4.053762|   -4.617264|
|          48|   -4.415728|   -4.267297|   -4.152036|   -4.727002|
|          49|   -4.561188|   -4.354284|   -4.290379|   -4.854341|
|          50|   -4.723184|   -4.432440|   -4.455573|   -4.949042|
|          51|   -4.789862|   -4.487274|   -4.539214|   -4.983203|
|          52|   -4.752105|   -4.529408|   -4.498644|   -4.996026|
|          53|   -4.715367|   -4.576638|   -4.449610|   -5.002027|
|          54|   -4.676786|   -4.609725|   -4.399781|   -4.966656|
|          55|   -4.620357|   -4.585714|   -4.335232|   -4.943495|
|          56|   -4.568735|   -4.525431|   -4.280768|   -4.936631|
|          57|   -4.539627|   -4.478510|   -4.249250|   -4.916582|
|          58|   -4.525361|   -4.456591|   -4.230160|   -4.890051|
|          59|   -4.511735|   -4.448971|   -4.210875|   -4.880598|
|          60|   -4.497379|   -4.446472|   -4.193117|   -4.904262|
|          61|   -4.491888|   -4.450939|   -4.187415|   -4.975560|
|          62|   -4.503481|   -4.468659|   -4.200766|   -5.103801|
|          63|   -4.533089|   -4.501188|   -4.232178|   -5.234931|
|          64|   -4.573135|   -4.541848|   -4.272305|   -5.209390|
|          65|   -4.609379|   -4.575760|   -4.308859|   -5.120713|
|          66|   -4.631504|   -4.587779|   -4.335021|   -5.089750|
|          67|   -4.647742|   -4.581477|   -4.359579|   -5.119599|
|          68|   -4.681239|   -4.580897|   -4.402982|   -5.167563|
|          69|   -4.754032|   -4.608636|   -4.483820|   -5.175263|
|          70|   -4.882143|   -4.674570|   -4.617726|   -5.147234|
|          71|   -5.083531|   -4.773777|   -4.823383|   -5.113392|
|          72|   -5.389842|   -4.882215|   -5.148273|   -5.077241|
|          73|   -5.523402|   -4.958929|   -5.346327|   -5.044179|
|          74|   -5.268331|   -4.983906|   -5.039189|   -5.023824|
|          75|   -5.103670|   -4.974752|   -4.857550|   -5.008513|
|          76|   -5.007787|   -4.949939|   -4.750421|   -4.992472|
|          77|   -4.943350|   -4.915268|   -4.678731|   -4.974061|
|          78|   -4.897242|   -4.877293|   -4.627210|   -4.966280|
|          79|   -4.861610|   -4.842309|   -4.589677|   -4.970035|
|          80|   -4.837487|   -4.817352|   -4.565226|   -4.975198|
|          81|   -4.827429|   -4.805327|   -4.553796|   -4.979828|
|          82|   -4.829759|   -4.804168|   -4.554048|   -4.991568|
|          83|   -4.841682|   -4.811986|   -4.563909|   -5.010377|
|          84|   -4.860692|   -4.827899|   -4.581002|   -5.034229|
|          85|   -4.885095|   -4.850874|   -4.603795|   -5.064328|
|          86|   -4.914263|   -4.879094|   -4.632196|   -5.100247|
|          87|   -4.947564|   -4.909167|   -4.665875|   -5.139747|
|          88|   -4.982756|   -4.935068|   -4.702891|   -5.184181|
|          89|   -5.019332|   -4.952980|   -4.743234|   -5.242416|
|          90|   -5.064898|   -4.969726|   -4.794366|   -5.328619|
|          91|   -5.134340|   -5.000202|   -4.870363|   -5.458078|
|          92|   -5.244640|   -5.056616|   -4.987549|   -5.651246|
|          93|   -5.416513|   -5.142088|   -5.168502|   -5.937309|
|          94|   -5.676553|   -5.245631|   -5.452840|   -6.046917|
|          95|   -5.827643|   -5.333514|   -5.616686|   -5.834365|
|          96|   -5.607263|   -5.363549|   -5.348950|   -5.715506|
|          97|   -5.437872|   -5.337149|   -5.169605|   -5.660400|
|          98|   -5.334345|   -5.287200|   -5.062957|   -5.634728|
|          99|   -5.269109|   -5.236145|   -4.995809|   -5.617801|
|         100|   -5.226795|   -5.193672|   -4.951580|   -5.604719|
|         101|   -5.198984|   -5.163236|   -4.921677|   -5.603612|
|         102|   -5.181969|   -5.144942|   -4.902646|   -5.622638|
|         103|   -5.175540|   -5.137635|   -4.894635|   -5.662987|
|         104|   -5.180435|   -5.140060|   -4.898631|   -5.723699|
|         105|   -5.196219|   -5.150975|   -4.914255|   -5.807601|
|         106|   -5.221139|   -5.169232|   -4.939430|   -5.912515|
|         107|   -5.252754|   -5.193853|   -4.971056|   -6.003931|
|         108|   -5.288889|   -5.223853|   -5.006617|   -6.014809|
|         109|   -5.329315|   -5.258181|   -5.046256|   -5.948688|
|         110|   -5.375892|   -5.295391|   -5.092464|   -5.870375|
|         111|   -5.430949|   -5.333637|   -5.148236|   -5.812447|
|         112|   -5.498525|   -5.373776|   -5.218636|   -5.776456|
|         113|   -5.588628|   -5.422993|   -5.313558|   -5.752813|
|         114|   -5.719355|   -5.492084|   -5.450417|   -5.733597|
|         115|   -5.917194|   -5.587194|   -5.657606|   -5.716337|
|         116|   -6.159363|   -5.696354|   -5.925704|   -5.701782|
|         117|   -6.071841|   -5.767884|   -5.830941|   -5.692015|
|         118|   -5.861438|   -5.750164|   -5.606854|   -5.688294|
|         119|   -5.725649|   -5.683343|   -5.463980|   -5.674017|
|         120|   -5.641645|   -5.617007|   -5.374294|   -5.658483|
|         121|   -5.585699|   -5.563110|   -5.315245|   -5.646231|
|         122|   -5.547548|   -5.522957|   -5.275116|   -5.641942|
|         123|   -5.522506|   -5.495704|   -5.248494|   -5.644760|
|         124|   -5.509085|   -5.480400|   -5.233507|   -5.653458|
|         125|   -5.506684|   -5.475634|   -5.229746|   -5.670583|
|         126|   -5.515139|   -5.480221|   -5.236823|   -5.694665|
|         127|   -5.533271|   -5.492421|   -5.253811|   -5.723086|
|         128|   -5.559225|   -5.510484|   -5.278913|   -5.754563|
|         129|   -5.591071|   -5.533194|   -5.310356|   -5.788432|
|         130|   -5.627812|   -5.560251|   -5.347102|   -5.826163|
|         131|   -5.669979|   -5.591919|   -5.389695|   -5.870933|
|         132|   -5.719730|   -5.628621|   -5.440509|   -5.926987|
|         133|   -5.780375|   -5.670869|   -5.503200|   -6.000028|
|         134|   -5.856280|   -5.719895|   -5.582647|   -6.093815|
|         135|   -5.953825|   -5.778557|   -5.685986|   -6.212523|
|         136|   -6.081719|   -5.850813|   -5.823552|   -6.346618|
|         137|   -6.241101|   -5.937859|   -5.999416|   -6.439989|
|         138|   -6.356001|   -6.028113|   -6.123665|   -6.421219|
|         139|   -6.281899|   -6.084315|   -6.024664|   -6.354734|
|         140|   -6.140939|   -6.070445|   -5.870987|   -6.308173|
|         141|   -6.029060|   -6.008700|   -5.756114|   -6.285140|
|         142|   -5.950758|   -5.939883|   -5.677149|   -6.278896|
|         143|   -5.898139|   -5.882411|   -5.624184|   -6.281756|
|         144|   -5.864442|   -5.840513|   -5.589897|   -6.290188|
|         145|   -5.844654|   -5.813625|   -5.569198|   -6.308506|
|         146|   -5.835721|   -5.799812|   -5.559139|   -6.344501|
|         147|   -5.836753|   -5.797056|   -5.559003|   -6.401278|
|         148|   -5.848074|   -5.803605|   -5.569314|   -6.474106|
|         149|   -5.869622|   -5.817736|   -5.590244|   -6.554836|
|         150|   -5.900436|   -5.837955|   -5.620974|   -6.631150|
|         151|   -5.939335|   -5.863902|   -5.660066|   -6.670378|
|         152|   -5.985469|   -5.896561|   -5.706050|   -6.645466|
|         153|   -6.038977|   -5.937244|   -5.758699|   -6.582140|
|         154|   -6.102368|   -5.986655|   -5.820822|   -6.511360|
|         155|   -6.180461|   -6.044424|   -5.897906|   -6.447859|
|         156|   -6.278277|   -6.109145|   -5.996114|   -6.400082|
|         157|   -6.401497|   -6.180817|   -6.123350|   -6.369144|
|         158|   -6.558156|   -6.263927|   -6.291133|   -6.350649|
|         159|   -6.720174|   -6.360863|   -6.473960|   -6.340731|
|         160|   -6.709125|   -6.446742|   -6.462681|   -6.336818|
|         161|   -6.554711|   -6.458995|   -6.296163|   -6.335169|
|         162|   -6.420405|   -6.395925|   -6.156206|   -6.331200|
|         163|   -6.324307|   -6.318420|   -6.055827|   -6.316342|
|         164|   -6.258298|   -6.254295|   -5.986402|   -6.304163|
|         165|   -6.213653|   -6.205205|   -5.939735|   -6.299247|
|         166|   -6.185641|   -6.169269|   -5.910809|   -6.304755|
|         167|   -6.170690|   -6.145076|   -5.895319|   -6.319712|
|         168|   -6.166210|   -6.132093|   -5.890209|   -6.339415|
|         169|   -6.170638|   -6.129769|   -5.893524|   -6.362892|
|         170|   -6.183162|   -6.136792|   -5.904764|   -6.390553|
|         171|   -6.204120|   -6.151785|   -5.924625|   -6.422484|
|         172|   -6.233885|   -6.173277|   -5.953699|   -6.457653|
|         173|   -6.272295|   -6.200077|   -5.991972|   -6.495198|
|         174|   -6.319171|   -6.232097|   -6.039268|   -6.535821|
|         175|   -6.375107|   -6.270631|   -6.095970|   -6.580644|
|         176|   -6.442117|   -6.317654|   -6.163927|   -6.631167|
|         177|   -6.524267|   -6.374880|   -6.247436|   -6.688117|
|         178|   -6.627405|   -6.443091|   -6.353671|   -6.750761|
|         179|   -6.758032|   -6.522266|   -6.491773|   -6.809348|
|         180|   -6.912338|   -6.610781|   -6.663761|   -6.848134|
|         181|   -7.019133|   -6.700414|   -6.789765|   -6.859091|
|         182|   -6.957636|   -6.764046|   -6.708376|   -6.850861|
|         183|   -6.824527|   -6.763123|   -6.558665|   -6.840878|
|         184|   -6.711623|   -6.705415|   -6.439902|   -6.836774|
|         185|   -6.627994|   -6.632788|   -6.354153|   -6.840548|
|         186|   -6.568097|   -6.568903|   -6.293262|   -6.853226|
|         187|   -6.527088|   -6.519667|   -6.251543|   -6.874100|
|         188|   -6.501429|   -6.484630|   -6.225274|   -6.902090|
|         189|   -6.488400|   -6.462202|   -6.211729|   -6.937542|
|         190|   -6.486012|   -6.451020|   -6.208824|   -6.981310|
|         191|   -6.493097|   -6.449923|   -6.215295|   -7.032127|
|         192|   -6.509277|   -6.457762|   -6.230835|   -7.084232|
|         193|   -6.534628|   -6.473410|   -6.255718|   -7.127313|
|         194|   -6.569317|   -6.496091|   -6.290238|   -7.149512|
|         195|   -6.613575|   -6.525883|   -6.334522|   -7.143849|
|         196|   -6.667919|   -6.563789|   -6.388741|   -7.115220|
|         197|   -6.733670|   -6.611134|   -6.453906|   -7.075320|
|         198|   -6.813999|   -6.668874|   -6.533222|   -7.033044|
|         199|   -6.914580|   -6.737281|   -6.632909|   -6.994447|
|         200|   -7.043147|   -6.816076|   -6.762157|   -6.963736|
|         201|   -7.207157|   -6.905114|   -6.932209|   -6.941789|
|         202|   -7.381198|   -7.002449|   -7.126014|   -6.927481|
|         203|   -7.389124|   -7.090090|   -7.148327|   -6.920059|
|         204|   -7.240233|   -7.122753|   -6.984256|   -6.915823|
|         205|   -7.103312|   -7.080066|   -6.839066|   -6.915748|
|         206|   -7.001070|   -7.004497|   -6.733256|   -6.908482|
|         207|   -6.928693|   -6.934799|   -6.657262|   -6.900626|
|         208|   -6.877512|   -6.878830|   -6.603985|   -6.898332|
|         209|   -6.843749|   -6.836893|   -6.569012|   -6.900368|
|         210|   -6.824054|   -6.806878|   -6.548551|   -6.910243|
|         211|   -6.815389|   -6.787521|   -6.539346|   -6.924815|
|         212|   -6.815774|   -6.778582|   -6.539049|   -6.942185|
|         213|   -6.824317|   -6.779428|   -6.546623|   -6.961258|
|         214|   -6.841191|   -6.788905|   -6.562521|   -6.981536|
|         215|   -6.867000|   -6.805746|   -6.587686|   -7.002526|
|         216|   -6.902152|   -6.829061|   -6.622658|   -7.023710|
|         217|   -6.946990|   -6.858930|   -6.667702|   -7.044456|
|         218|   -7.002261|   -6.896545|   -6.723316|   -7.065027|
|         219|   -7.069629|   -6.943605|   -6.790916|   -7.084495|
|         220|   -7.152420|   -7.001533|   -6.873930|   -7.102608|
|         221|   -7.256191|   -7.071052|   -6.978833|   -7.118569|
|         222|   -7.388479|   -7.152193|   -7.115489|   -7.130645|
|         223|   -7.553329|   -7.243958|   -7.293553|   -7.138479|
|         224|   -7.701257|   -7.340446|   -7.468761|   -7.142795|
|         225|   -7.668302|   -7.419146|   -7.428297|   -7.146098|
|         226|   -7.523015|   -7.437643|   -7.263534|   -7.148475|
|         227|   -7.397716|   -7.389718|   -7.129510|   -7.150116|
|         228|   -7.305131|   -7.316899|   -7.032946|   -7.152853|
|         229|   -7.237805|   -7.248696|   -6.963695|   -7.158260|
|         230|   -7.190283|   -7.193820|   -6.915085|   -7.165814|
|         231|   -7.158856|   -7.152600|   -6.882909|   -7.174113|
|         232|   -7.140580|   -7.123605|   -6.864088|   -7.182381|
|         233|   -7.133198|   -7.105646|   -6.856266|   -7.190492|
|         234|   -7.135286|   -7.097837|   -6.857877|   -7.198197|
|         235|   -7.146293|   -7.099316|   -6.868340|   -7.204886|
|         236|   -7.166286|   -7.109186|   -6.887861|   -7.209881|
|         237|   -7.195605|   -7.126783|   -6.916911|   -7.212677|
|         238|   -7.234739|   -7.152050|   -6.955927|   -7.213100|
|         239|   -7.284393|   -7.185617|   -7.005416|   -7.211404|
|         240|   -7.345847|   -7.228513|   -7.066453|   -7.208145|
|         241|   -7.421701|   -7.281780|   -7.141565|   -7.203937|
|         242|   -7.516624|   -7.346230|   -7.235691|   -7.199279|
|         243|   -7.638050|   -7.422488|   -7.357080|   -7.194466|
|         244|   -7.796815|   -7.511070|   -7.518629|   -7.189665|
|         245|   -7.994701|   -7.610612|   -7.729754|   -7.185145|
|         246|   -8.103294|   -7.709633|   -7.864680|   -7.181350|
|         247|   -7.967740|   -7.771610|   -7.716365|   -7.178929|
|         248|   -7.807427|   -7.757396|   -7.545081|   -7.178129|
|         249|   -7.688819|   -7.690381|   -7.421870|   -7.178020|
|         250|   -7.605311|   -7.617161|   -7.334603|   -7.177812|
|         251|   -7.546089|   -7.554544|   -7.273084|   -7.177275|
|         252|   -7.504992|   -7.505229|   -7.230929|   -7.177149|
|         253|   -7.478673|   -7.468713|   -7.203775|   -7.177702|
|         254|   -7.464183|   -7.443605|   -7.188486|   -7.178984|
|         255|   -7.459407|   -7.428952|   -7.182911|   -7.180803|
|         256|   -7.463331|   -7.423936|   -7.186013|   -7.182871|
|         257|   -7.475862|   -7.427578|   -7.197806|   -7.185094|
|         258|   -7.497283|   -7.438918|   -7.218739|   -7.187309|
|         259|   -7.527880|   -7.457451|   -7.249130|   -7.189526|
|         260|   -7.568051|   -7.483438|   -7.289233|   -7.191825|
|         261|   -7.618586|   -7.517772|   -7.339625|   -7.194283|
|         262|   -7.680896|   -7.561451|   -7.401756|   -7.196616|
|         263|   -7.757881|   -7.615444|   -7.478626|   -7.198495|
|         264|   -7.854590|   -7.680627|   -7.575579|   -7.199902|
|         265|   -7.978781|   -7.757841|   -7.701221|   -7.201174|
|         266|   -8.139703|   -7.847461|   -7.868492|   -7.202379|
|         267|   -8.330056|   -7.947578|   -8.078975|   -7.203477|
|         268|   -8.397634|   -8.043560|   -8.167911|   -7.204360|
|         269|   -8.253955|   -8.095331|   -8.004168|   -7.204889|
|         270|   -8.104961|   -8.072096|   -7.842183|   -7.205095|
|         271|   -7.995900|   -8.004878|   -7.726430|   -7.205356|
|         272|   -7.917286|   -7.932835|   -7.644632|   -7.205904|
|         273|   -7.861153|   -7.871386|   -7.586961|   -7.206764|
|         274|   -7.822529|   -7.823283|   -7.547416|   -7.207757|
|         275|   -7.797844|   -7.787674|   -7.522013|   -7.208676|
|         276|   -7.784448|   -7.763354|   -7.508035|   -7.209465|
|         277|   -7.780731|   -7.749382|   -7.503805|   -7.210163|
|         278|   -7.786055|   -7.744905|   -7.508608|   -7.210773|
|         279|   -7.800337|   -7.749059|   -7.522420|   -7.211227|
|         280|   -7.823728|   -7.761192|   -7.545490|   -7.211428|
|         281|   -7.856537|   -7.781145|   -7.578095|   -7.211341|
|         282|   -7.899318|   -7.809297|   -7.620653|   -7.211024|
|         283|   -7.953134|   -7.846374|   -7.674100|   -7.210589|
|         284|   -8.020024|   -7.893216|   -7.740451|   -7.210111|
|         285|   -8.103521|   -7.950680|   -7.823377|   -7.209594|
|         286|   -8.209335|   -8.019758|   -7.928929|   -7.209000|
|         287|   -8.346640|   -8.101666|   -8.067019|   -7.208319|
|         288|   -8.527836|   -8.196940|   -8.252856|   -7.207672|
|         289|   -8.728590|   -8.300829|   -8.474921|   -7.207177|
|         290|   -8.723269|   -8.391526|   -8.482844|   -7.206813|
|         291|   -8.546604|   -8.423403|   -8.290737|   -7.206626|
|         292|   -8.401575|   -8.382184|   -8.137242|   -7.206522|
|         293|   -8.299693|   -8.310728|   -8.030492|   -7.206442|
|         294|   -8.227553|   -8.241230|   -7.955597|   -7.206379|
|         295|   -8.176595|   -8.183602|   -7.903068|   -7.206365|
|         296|   -8.141738|   -8.139045|   -7.867176|   -7.206429|
|         297|   -8.119694|   -8.106627|   -7.844300|   -7.206555|
|         298|   -8.108344|   -8.085176|   -7.832196|   -7.206702|
|         299|   -8.106495|   -8.073609|   -7.829656|   -7.206836|
|         300|   -8.113614|   -8.070966|   -7.836190|   -7.206957|
|         301|   -8.129557|   -8.076505|   -7.851684|   -7.207090|
|         302|   -8.154407|   -8.089863|   -7.876191|   -7.207255|
|         303|   -8.188471|   -8.111101|   -7.909942|   -7.207448|
|         304|   -8.232408|   -8.140620|   -7.953536|   -7.207645|
|         305|   -8.287500|   -8.179016|   -8.008252|   -7.207821|
|         306|   -8.355993|   -8.227011|   -8.076407|   -7.207970|
|         307|   -8.441514|   -8.285498|   -8.161785|   -7.208106|
|         308|   -8.549804|   -8.355670|   -8.270456|   -7.208241|
|         309|   -8.689814|   -8.438847|   -8.412382|   -7.208378|
|         310|   -8.870970|   -8.535100|   -8.601390|   -7.208500|
|         311|   -9.048952|   -8.638121|   -8.806586|   -7.208595|
|         312|   -9.008501|   -8.722844|   -8.771000|   -7.208659|
|         313|   -8.842515|   -8.745298|   -8.585961|   -7.208701|
|         314|   -8.708223|   -8.699269|   -8.442483|   -7.208737|
|         315|   -8.611933|   -8.626998|   -8.341803|   -7.208770|
|         316|   -8.543166|   -8.558244|   -8.270620|   -7.208796|
|         317|   -8.494593|   -8.501906|   -8.220440|   -7.208833|
|         318|   -8.461357|   -8.458612|   -8.186164|   -7.208875|
|         319|   -8.440570|   -8.427302|   -8.164623|   -7.208922|
|         320|   -8.430446|   -8.406739|   -8.153893|   -7.208966|
|         321|   -8.429908|   -8.395870|   -8.152841|   -7.209001|
|         322|   -8.438384|   -8.393919|   -8.160866|   -7.209023|
|         323|   -8.455679|   -8.400374|   -8.177757|   -7.209026|
|         324|   -8.481917|   -8.414985|   -8.203626|   -7.209008|
|         325|   -8.517557|   -8.437767|   -8.238913|   -7.208972|
|         326|   -8.563479|   -8.468997|   -8.284477|   -7.208919|
|         327|   -8.621166|   -8.509208|   -8.341788|   -7.208855|
|         328|   -8.693007|   -8.559197|   -8.413250|   -7.208783|
|         329|   -8.782843|   -8.620054|   -8.502770|   -7.208704|
|         330|   -8.896933|   -8.693121|   -8.616845|   -7.208619|
|         331|   -9.044838|   -8.779503|   -8.766368|   -7.208548|
|         332|   -9.232604|   -8.877998|   -8.964101|   -7.208499|
|         333|   -9.386160|   -8.979710|   -9.147316|   -7.208464|
|         334|   -9.301023|   -9.055224|   -9.058085|   -7.208438|
|         335|   -9.137131|   -9.063101|   -8.877922|   -7.208416|
|         336|   -9.011092|   -9.009273|   -8.744403|   -7.208400|
|         337|   -8.920982|   -8.936509|   -8.650552|   -7.208392|
|         338|   -8.856543|   -8.869795|   -8.583906|   -7.208391|
|         339|   -8.810949|   -8.815893|   -8.536843|   -7.208394|
|         340|   -8.780042|   -8.775067|   -8.504879|   -7.208400|
|         341|   -8.761264|   -8.746050|   -8.485308|   -7.208409|
|         342|   -8.753013|   -8.727507|   -8.476436|   -7.208422|
|         343|   -8.754282|   -8.718412|   -8.477191|   -7.208441|
|         344|   -8.764493|   -8.718077|   -8.486944|   -7.208463|
|         345|   -8.783439|   -8.726099|   -8.505459|   -7.208488|
|         346|   -8.811279|   -8.742299|   -8.532887|   -7.208512|
|         347|   -8.848568|   -8.766696|   -8.569789|   -7.208537|
|         348|   -8.896311|   -8.799533|   -8.617178|   -7.208562|
|         349|   -8.956106|   -8.841329|   -8.676659|   -7.208587|
|         350|   -9.030439|   -8.892920|   -8.750754|   -7.208612|
|         351|   -9.123266|   -8.955456|   -8.843543|   -7.208636|
|         352|   -9.240990|   -9.030280|   -8.961859|   -7.208656|
|         353|   -9.393176|   -9.118352|   -9.116913|   -7.208674|
|         354|   -9.582176|   -9.218041|   -9.318032|   -7.208690|
|         355|   -9.704516|   -9.318049|   -9.468101|   -7.208705|
|         356|   -9.592641|   -9.385111|   -9.346121|   -7.208718|
|         357|   -9.435616|   -9.381246|   -9.174700|   -7.208728|
|         358|   -9.316996|   -9.321638|   -9.049385|   -7.208734|
|         359|   -9.231795|   -9.248596|   -8.960737|   -7.208738|
|         360|   -9.170713|   -9.183517|   -8.897603|   -7.208740|
|         361|   -9.127645|   -9.131549|   -8.853181|   -7.208740|
|         362|   -9.098815|   -9.092505|   -8.823390|   -7.208738|
|         363|   -9.081846|   -9.065085|   -8.805697|   -7.208735|
|         364|   -9.075224|   -9.048043|   -8.798493|   -7.208729|
|         365|   -9.078015|   -9.040432|   -8.800780|   -7.208721|
|         366|   -9.089724|   -9.041593|   -8.812029|   -7.208713|
|         367|   -9.110233|   -9.051112|   -8.832113|   -7.208705|
|         368|   -9.139780|   -9.068793|   -8.861269|   -7.208696|
|         369|   -9.178977|   -9.094677|   -8.900111|   -7.208687|
|         370|   -9.228888|   -9.129074|   -8.949695|   -7.208677|
|         371|   -9.291212|   -9.172584|   -9.011726|   -7.208668|
|         372|   -9.368649|   -9.226115|   -9.088945|   -7.208658|
|         373|   -9.465549|   -9.290852|   -9.185868|   -7.208650|
|         374|   -9.588957|   -9.368100|   -9.310104|   -7.208642|
|         375|   -9.748863|   -9.458571|   -9.473814|   -7.208635|
|         376|   -9.940733|   -9.559629|   -9.681427|   -7.208628|
|         377|  -10.023023|   -9.656852|   -9.788819|   -7.208622|
|         378|   -9.885007|   -9.712854|   -9.635254|   -7.208617|
|         379|   -9.733614|   -9.695731|   -9.471125|   -7.208613|
|         380|   -9.621860|   -9.630801|   -9.353476|   -7.208611|
|         381|   -9.541670|   -9.558289|   -9.270169|   -7.208610|
|         382|   -9.484273|   -9.495532|   -9.210879|   -7.208609|
|         383|   -9.444076|   -9.446085|   -9.169414|   -7.208609|
|         384|   -9.417606|   -9.409356|   -9.142034|   -7.208611|
|         385|   -9.402664|   -9.383998|   -9.126396|   -7.208613|
|         386|   -9.397851|   -9.368806|   -9.121013|   -7.208616|
|         387|   -9.402317|   -9.362882|   -9.124982|   -7.208620|
|         388|   -9.415643|   -9.365613|   -9.137857|   -7.208625|
|         389|   -9.437780|   -9.376625|   -9.159580|   -7.208629|
|         390|   -9.469032|   -9.395776|   -9.190451|   -7.208634|
|         391|   -9.510082|   -9.423163|   -9.231150|   -7.208639|
|         392|   -9.562093|   -9.459153|   -9.282839|   -7.208644|
|         393|   -9.626924|   -9.504399|   -9.347386|   -7.208650|
|         394|   -9.707537|   -9.559858|   -9.427816|   -7.208655|
|         395|   -9.808718|   -9.626757|   -9.529122|   -7.208659|
|         396|   -9.938167|   -9.706396|   -9.659715|   -7.208663|
|         397|  -10.105968|   -9.799217|   -9.832525|   -7.208667|
|         398|  -10.296460|   -9.901312|  -10.042882|   -7.208670|
|         399|  -10.331942|   -9.994522|  -10.097354|   -7.208673|
|         400|  -10.177582|  -10.038036|   -9.924798|   -7.208675|
|         401|  -10.032943|  -10.008583|   -9.769044|   -7.208677|
|         402|   -9.927708|   -9.939809|   -9.658607|   -7.208678|
|         403|   -9.852262|   -9.868419|   -9.580342|   -7.208679|
|         404|   -9.798405|   -9.808085|   -9.524743|   -7.208679|
|         405|   -9.760988|   -9.761099|   -9.486144|   -7.208679|
|         406|   -9.736806|   -9.726599|   -9.461098|   -7.208678|
|         407|   -9.723828|   -9.703236|   -9.447446|   -7.208677|
|         408|   -9.720773|   -9.689853|   -9.443829|   -7.208676|
|         409|   -9.726888|   -9.685592|   -9.449454|   -7.208674|
|         410|   -9.741832|   -9.689876|   -9.463957|   -7.208672|
|         411|   -9.765618|   -9.702373|   -9.487342|   -7.208670|
|         412|   -9.798610|   -9.722996|   -9.519964|   -7.208668|
|         413|   -9.841563|   -9.751904|   -9.562572|   -7.208665|
|         414|   -9.895747|   -9.789521|   -9.616437|   -7.208663|
|         415|   -9.963201|   -9.836554|   -9.683618|   -7.208661|
|         416|  -10.047175|   -9.894006|   -9.767446|   -7.208659|
|         417|  -10.152923|   -9.963143|   -9.873438|   -7.208657|
|         418|  -10.288813|  -10.045228|  -10.010862|   -7.208655|
|         419|  -10.464419|  -10.140314|  -10.193045|   -7.208653|
|         420|  -10.646899|  -10.242862|  -10.399661|   -7.208651|
|         421|  -10.632871|  -10.330494|  -10.395915|   -7.208650|
|         422|  -10.470762|  -10.360472|  -10.215249|   -7.208649|
|         423|  -10.333556|  -10.320127|  -10.068409|   -7.208648|
|         424|  -10.234553|  -10.248846|   -9.964807|   -7.208648|
|         425|  -10.163605|  -10.178996|   -9.891303|   -7.208648|
|         426|  -10.113115|  -10.121130|   -9.839206|   -7.208648|
|         427|  -10.078357|  -10.076566|   -9.803338|   -7.208648|
|         428|  -10.056380|  -10.044246|   -9.780536|   -7.208648|
|         429|  -10.045315|  -10.022831|   -9.768817|   -7.208649|
|         430|  -10.043995|  -10.011208|   -9.766949|   -7.208650|
|         431|  -10.051755|  -10.008567|   -9.774230|   -7.208650|
|         432|  -10.068321|  -10.014375|   -9.790367|   -7.208651|
|         433|  -10.093768|  -10.028355|   -9.815421|   -7.208652|
|         434|  -10.128520|  -10.050471|   -9.849809|   -7.208653|
|         435|  -10.173416|  -10.080934|   -9.894363|   -7.208655|
|         436|  -10.229852|  -10.120216|   -9.950485|   -7.208656|
|         437|  -10.300058|  -10.169074|  -10.020435|   -7.208657|
|         438|  -10.387592|  -10.228563|  -10.107874|   -7.208658|
|         439|  -10.498212|  -10.299992|  -10.218880|   -7.208659|
|         440|  -10.640934|  -10.384556|  -10.363627|   -7.208660|
|         441|  -10.823835|  -10.481774|  -10.555137|   -7.208661|
|         442|  -10.989521|  -10.584050|  -10.748454|   -7.208661|
|         443|  -10.928545|  -10.664430|  -10.688106|   -7.208662|
|         444|  -10.765046|  -10.680283|  -10.507135|   -7.208662|
|         445|  -10.635434|  -10.630676|  -10.369187|   -7.208663|
|         446|  -10.542337|  -10.558023|  -10.272010|   -7.208663|
|         447|  -10.475648|  -10.490030|  -10.202998|   -7.208663|
|         448|  -10.428370|  -10.434655|  -10.154230|   -7.208663|
|         449|  -10.396166|  -10.392467|  -10.120979|   -7.208663|
|         450|  -10.376323|  -10.362275|  -10.100346|   -7.208663|
|         451|  -10.367127|  -10.342759|  -10.090516|   -7.208662|
|         452|  -10.367520|  -10.332857|  -10.090376|   -7.208662|
|         453|  -10.376917|  -10.331808|  -10.099307|   -7.208662|
|         454|  -10.395109|  -10.339130|  -10.117080|   -7.208661|
|         455|  -10.422230|  -10.354595|  -10.143814|   -7.208661|
|         456|  -10.458771|  -10.378218|  -10.179995|   -7.208660|
|         457|  -10.505662|  -10.410258|  -10.226548|   -7.208660|
|         458|  -10.564435|  -10.451236|  -10.285014|   -7.208659|
|         459|  -10.637524|  -10.501960|  -10.357868|   -7.208659|
|         460|  -10.728821|  -10.563542|  -10.449128|   -7.208658|
|         461|  -10.844621|  -10.637320|  -10.565488|   -7.208658|
|         462|  -10.994537|  -10.724371|  -10.718057|   -7.208657|
|         463|  -11.183544|  -10.823497|  -10.918288|   -7.208657|
|         464|  -11.322106|  -10.924586|  -11.085958|   -7.208657|
|         465|  -11.221291|  -10.996004|  -10.977014|   -7.208656|
|         466|  -11.060685|  -10.997693|  -10.800699|   -7.208656|
|         467|  -10.938553|  -10.940525|  -10.671340|   -7.208656|
|         468|  -10.851020|  -10.867429|  -10.580172|   -7.208656|
|         469|  -10.788357|  -10.801524|  -10.515387|   -7.208656|
|         470|  -10.744139|  -10.748645|  -10.469780|   -7.208656|
|         471|  -10.714391|  -10.708788|  -10.439042|   -7.208656|
|         472|  -10.696622|  -10.680673|  -10.420516|   -7.208656|
|         473|  -10.689262|  -10.663012|  -10.412543|   -7.208656|
|         474|  -10.691351|  -10.654796|  -10.414114|   -7.208656|
|         475|  -10.702379|  -10.655317|  -10.424687|   -7.208656|
|         476|  -10.722199|  -10.664145|  -10.444096|   -7.208657|
|         477|  -10.751008|  -10.681102|  -10.472524|   -7.208657|
|         478|  -10.789370|  -10.706248|  -10.510530|   -7.208657|
|         479|  -10.838314|  -10.739887|  -10.559140|   -7.208657|
|         480|  -10.899513|  -10.782591|  -10.620042|   -7.208658|
|         481|  -10.975623|  -10.835222|  -10.695942|   -7.208658|
|         482|  -11.070896|  -10.898949|  -10.791247|   -7.208658|
|         483|  -11.192207|  -10.975127|  -10.913331|   -7.208658|
|         484|  -11.349633|  -11.064646|  -11.074224|   -7.208659|
|         485|  -11.542535|  -11.165372|  -11.281628|   -7.208659|
|         486|  -11.643695|  -11.264174|  -11.410221|   -7.208659|
|         487|  -11.512882|  -11.324988|  -11.264879|   -7.208659|
|         488|  -11.357772|  -11.312993|  -11.095997|   -7.208659|
|         489|  -11.242848|  -11.249922|  -10.974784|   -7.208659|
|         490|  -11.160549|  -11.177137|  -10.889228|   -7.208659|
|         491|  -11.101694|  -11.113485|  -10.828427|   -7.208659|
|         492|  -11.060399|  -11.063089|  -10.785834|   -7.208659|
|         493|  -11.033022|  -11.025513|  -10.757517|   -7.208659|
|         494|  -11.017274|  -10.999426|  -10.741043|   -7.208659|
|         495|  -11.011717|  -10.983581|  -10.734894|   -7.208659|
|         496|  -11.015485|  -10.977022|  -10.738159|   -7.208659|
|         497|  -11.028138|  -10.979099|  -10.750367|   -7.208659|
|         498|  -11.049593|  -10.989430|  -10.771418|   -7.208659|
|         499|  -11.080109|  -11.007884|  -10.801558|   -7.208659|
|         500|  -11.120330|  -11.034565|  -10.841426|   -7.208659|
|         501|  -11.171387|  -11.069825|  -10.892154|   -7.208658|
|         502|  -11.235105|  -11.114285|  -10.955588|   -7.208658|
|         503|  -11.314380|  -11.168868|  -11.034682|   -7.208658|
|         504|  -11.413860|  -11.234794|  -11.134274|   -7.208658|
|         505|  -11.541034|  -11.313412|  -11.262490|   -7.208658|
|         506|  -11.706188|  -11.405344|  -11.432173|   -7.208658|
|         507|  -11.899289|  -11.507261|  -11.643687|   -7.208658|
|         508|  -11.954908|  -11.602494|  -11.721532|   -7.208658|
|         509|  -11.804508|  -11.651250|  -11.553117|   -7.208658|
|         510|  -11.656319|  -11.626509|  -11.393003|   -7.208658|
|         511|  -11.548252|  -11.559075|  -11.279433|   -7.208658|
|         512|  -11.470873|  -11.487200|  -11.199121|   -7.208658|
|         513|  -11.415627|  -11.425914|  -11.142083|   -7.208658|
|         514|  -11.377131|  -11.377976|  -11.102371|   -7.208658|
|         515|  -11.352046|  -11.342632|  -11.076394|   -7.208658|
|         516|  -11.338271|  -11.318526|  -11.061921|   -7.208658|
|         517|  -11.334489|  -11.304459|  -11.057567|   -7.208658|
|         518|  -11.339921|  -11.299536|  -11.062508|   -7.208658|
|         519|  -11.354196|  -11.303156|  -11.076347|   -7.208658|
|         520|  -11.377293|  -11.314989|  -11.099047|   -7.208658|
|         521|  -11.409540|  -11.334945|  -11.130922|   -7.208658|
|         522|  -11.451660|  -11.363174|  -11.172693|   -7.208658|
|         523|  -11.504894|  -11.400077|  -11.225605|   -7.208658|
|         524|  -11.571231|  -11.446327|  -11.291670|   -7.208658|
|         525|  -11.653826|  -11.502907|  -11.374118|   -7.208658|
|         526|  -11.757762|  -11.571082|  -11.478266|   -7.208658|
|         527|  -11.891175|  -11.652169|  -11.613061|   -7.208658|
|         528|  -12.064085|  -11.746422|  -11.791893|   -7.208658|
|         529|  -12.251732|  -11.849003|  -12.002206|   -7.208658|
|         530|  -12.257689|  -11.939212|  -12.022270|   -7.208658|
|         531|  -12.096902|  -11.974760|  -11.842532|   -7.208658|
|         532|  -11.956287|  -11.938577|  -11.691635|   -7.208658|
|         533|  -11.854697|  -11.868157|  -11.585204|   -7.208658|
|         534|  -11.781946|  -11.797658|  -11.509800|   -7.208658|
|         535|  -11.730128|  -11.738810|  -11.456325|   -7.208658|
|         536|  -11.694319|  -11.693296|  -11.419373|   -7.208658|
|         537|  -11.671455|  -11.660133|  -11.395661|   -7.208658|
|         538|  -11.659608|  -11.637965|  -11.383144|   -7.208658|
|         539|  -11.657574|  -11.625646|  -11.380555|   -7.208658|
|         540|  -11.664656|  -11.622337|  -11.387159|   -7.208658|
|         541|  -11.680553|  -11.627490|  -11.402628|   -7.208658|
|         542|  -11.705305|  -11.640822|  -11.426988|   -7.208658|
|         543|  -11.739308|  -11.662286|  -11.460624|   -7.208658|
|         544|  -11.783370|  -11.692079|  -11.504341|   -7.208658|
|         545|  -11.838849|  -11.730648|  -11.559505|   -7.208658|
|         546|  -11.907909|  -11.778725|  -11.628309|   -7.208658|
|         547|  -11.993995|  -11.837346|  -11.714288|   -7.208658|
|         548|  -12.102663|  -11.907818|  -11.823291|   -7.208658|
|         549|  -12.242700|  -11.991391|  -11.965147|   -7.208658|
|         550|  -12.423063|  -12.087829|  -12.153252|   -7.208658|
|         551|  -12.597391|  -12.190407|  -12.354138|   -7.208658|
|         552|  -12.554556|  -12.273997|  -12.315788|   -7.208658|
|         553|  -12.390482|  -12.295601|  -12.133533|   -7.208658|
|         554|  -12.257614|  -12.249523|  -11.991800|   -7.208658|
|         555|  -12.162117|  -12.177307|  -11.892020|   -7.208658|
|         556|  -12.093727|  -12.108541|  -11.821219|   -7.208658|
|         557|  -12.045172|  -12.052168|  -11.771127|   -7.208658|
|         558|  -12.011945|  -12.009039|  -11.736825|   -7.208658|
|         559|  -11.991238|  -11.978007|  -11.715309|   -7.208658|
|         560|  -11.981278|  -11.957737|  -11.704705|   -7.208658|
|         561|  -11.980968|  -11.947136|  -11.703857|   -7.208658|
|         562|  -11.989692|  -11.945424|  -11.712112|   -7.208658|
|         563|  -12.007211|  -11.952102|  -11.729211|   -7.208658|
|         564|  -12.033631|  -11.966931|  -11.755245|   -7.208658|
|         565|  -12.069419|  -11.989911|  -11.790669|   -7.208658|
|         566|  -12.115469|  -12.021283|  -11.836380|   -7.208658|
|         567|  -12.173266|  -12.061546|  -11.893869|   -7.208658|
|         568|  -12.245166|  -12.111484|  -11.965530|   -7.208658|
|         569|  -12.334927|  -12.172193|  -12.055235|   -7.208658|
|         570|  -12.448627|  -12.245008|  -12.169423|   -7.208658|
|         571|  -12.595671|  -12.331069|  -12.318849|   -7.208658|
|         572|  -12.782634|  -12.429496|  -12.515913|   -7.208658|
|         573|  -12.933886|  -12.531244|  -12.696123|   -7.208658|
|         574|  -12.847900|  -12.606541|  -12.605266|   -7.208658|
|         575|  -12.685457|  -12.613954|  -12.426290|   -7.208658|
|         576|  -12.560227|  -12.559647|  -12.293395|   -7.208658|
|         577|  -12.470453|  -12.486635|  -12.199812|   -7.208658|
|         578|  -12.406179|  -12.419866|  -12.133338|   -7.208658|
|         579|  -12.360735|  -12.365982|  -12.086464|   -7.208658|
|         580|  -12.329998|  -12.325194|  -12.054711|   -7.208658|
|         581|  -12.311387|  -12.296247|  -12.035328|   -7.208658|
|         582|  -12.303276|  -12.277836|  -12.026596|   -7.208658|
|         583|  -12.304670|  -12.268928|  -12.027467|   -7.208658|
|         584|  -12.315026|  -12.268795|  -12.037366|   -7.208658|
|         585|  -12.334172|  -12.276990|  -12.056099|   -7.208658|
|         586|  -12.362277|  -12.293317|  -12.083822|   -7.208658|
|         587|  -12.399879|  -12.317822|  -12.121066|   -7.208658|
|         588|  -12.447968|  -12.350792|  -12.168820|   -7.208658|
|         589|  -12.508162|  -12.392775|  -12.228714|   -7.208658|
|         590|  -12.583027|  -12.444613|  -12.303362|   -7.208658|
|         591|  -12.676668|  -12.507455|  -12.397006|   -7.208658|
|         592|  -12.795724|  -12.582656|  -12.516744|   -7.208658|
|         593|  -12.950126|  -12.671190|  -12.674256|   -7.208658|
|         594|  -13.141966|  -12.771336|  -12.879197|   -7.208658|
|         595|  -13.259700|  -12.871246|  -13.025546|   -7.208658|
|         596|  -13.139618|  -12.936587|  -12.893132|   -7.208658|
|         597|  -12.981911|  -12.930077|  -12.720840|   -7.208658|
|         598|  -12.864052|  -12.869215|  -12.596324|   -7.208658|
|         599|  -12.779650|  -12.796227|  -12.508517|   -7.208658|
|         600|  -12.719267|  -12.731647|  -12.446118|   -7.208658|
|         601|  -12.676797|  -12.680247|  -12.402314|   -7.208658|
|         602|  -12.648461|  -12.641752|  -12.373018|   -7.208658|
|         603|  -12.631892|  -12.614844|  -12.355709|   -7.208658|
|         604|  -12.625598|  -12.598259|  -12.348815|   -7.208658|
|         605|  -12.628676|  -12.591018|  -12.351385|   -7.208658|
|         606|  -12.640660|  -12.592450|  -12.362920|   -7.208658|
|         607|  -12.661439|  -12.602154|  -12.383293|   -7.208658|
|         608|  -12.691247|  -12.619982|  -12.412724|   -7.208658|
|         609|  -12.730697|  -12.646022|  -12.451820|   -7.208658|
|         610|  -12.780879|  -12.680608|  -12.501672|   -7.208658|
|         611|  -12.843556|  -12.724340|  -12.564059|   -7.208658|
|         612|  -12.921524|  -12.778118|  -12.641835|   -7.208658|
|         613|  -13.019267|  -12.843142|  -12.739657|   -7.208658|
|         614|  -13.144027|  -12.920765|  -12.865341|   -7.208658|
|         615|  -13.306061|  -13.011732|  -13.031438|   -7.208658|
|         616|  -13.499766|  -13.113237|  -13.241910|   -7.208658|
|         617|  -13.574797|  -13.210113|  -13.341734|   -7.208658|
|         618|  -13.431042|  -13.263960|  -13.181001|   -7.208658|
|         619|  -13.279854|  -13.244282|  -13.017142|   -7.208658|
|         620|  -13.169015|  -13.178453|  -12.900494|   -7.208658|
|         621|  -13.089659|  -13.106147|  -12.818078|   -7.208658|
|         622|  -13.032962|  -13.043890|  -12.759528|   -7.208658|
|         623|  -12.993338|  -12.994955|  -12.718655|   -7.208658|
|         624|  -12.967324|  -12.958706|  -12.691730|   -7.208658|
|         625|  -12.952746|  -12.933794|  -12.676443|   -7.208658|
|         626|  -12.948238|  -12.918999|  -12.671355|   -7.208658|
|         627|  -12.952986|  -12.913403|  -12.675608|   -7.208658|
|         628|  -12.966593|  -12.916385|  -12.688776|   -7.208658|
|         629|  -12.989013|  -12.927595|  -12.710796|   -7.208658|
|         630|  -13.020545|  -12.946927|  -12.741955|   -7.208658|
|         631|  -13.061880|  -12.974514|  -12.782940|   -7.208658|
|         632|  -13.114215|  -13.010737|  -12.834950|   -7.208658|
|         633|  -13.179468|  -13.056250|  -12.899926|   -7.208658|
|         634|  -13.260689|  -13.112007|  -12.980986|   -7.208658|
|         635|  -13.362779|  -13.179260|  -13.083245|   -7.208658|
|         636|  -13.493613|  -13.259339|  -13.215311|   -7.208658|
|         637|  -13.663401|  -13.352665|  -13.390408|   -7.208658|
|         638|  -13.854181|  -13.455058|  -13.602119|   -7.208658|
|         639|  -13.880624|  -13.547518|  -13.646275|   -7.208658|
|         640|  -13.723022|  -13.588585|  -13.469825|   -7.208658|
|         641|  -13.579243|  -13.556902|  -13.315114|   -7.208658|
|         642|  -13.475045|  -13.487552|  -13.205818|   -7.208658|
|         643|  -13.400433|  -13.416444|  -13.128444|   -7.208658|
|         644|  -13.347236|  -13.356594|  -13.073536|   -7.208658|
|         645|  -13.310340|  -13.310094|  -13.035469|   -7.208658|
|         646|  -13.286576|  -13.276045|  -13.010838|   -7.208658|
|         647|  -13.273942|  -13.253087|  -12.997524|   -7.208658|
|         648|  -13.271192|  -13.240053|  -12.994212|   -7.208658|
|         649|  -13.277597|  -13.236080|  -13.000134|   -7.208658|
|         650|  -13.292828|  -13.240602|  -13.014934|   -7.208658|
|         651|  -13.316899|  -13.253313|  -13.038611|   -7.208658|
|         652|  -13.350178|  -13.274153|  -13.071522|   -7.208658|
|         653|  -13.393439|  -13.303302|  -13.114436|   -7.208658|
|         654|  -13.447989|  -13.341185|  -13.168667|   -7.208658|
|         655|  -13.515921|  -13.388511|  -13.236336|   -7.208658|
|         656|  -13.600558|  -13.446290|  -13.320851|   -7.208658|
|         657|  -13.707260|  -13.515817|  -13.427835|   -7.208658|
|         658|  -13.844555|  -13.598372|  -13.566757|   -7.208658|
|         659|  -14.021966|  -13.693943|  -13.751106|   -7.208658|
|         660|  -14.202884|  -13.796625|  -13.957113|   -7.208658|
|         661|  -14.179558|  -13.883131|  -13.942276|   -7.208658|
|         662|  -14.016071|  -13.910499|  -13.760133|   -7.208658|
|         663|  -13.880024|  -13.868270|  -13.614665|   -7.208658|
|         664|  -13.782074|  -13.796660|  -13.512215|   -7.208658|
|         665|  -13.711933|  -13.727154|  -13.439569|   -7.208658|
|         666|  -13.662062|  -13.669766|  -13.388114|   -7.208658|
|         667|  -13.627791|  -13.625664|  -13.352741|   -7.208658|
|         668|  -13.606206|  -13.593764|  -13.330331|   -7.208658|
|         669|  -13.595477|  -13.572717|  -13.318947|   -7.208658|
|         670|  -13.594460|  -13.561414|  -13.317386|   -7.208658|
|         671|  -13.602511|  -13.559046|  -13.324964|   -7.208658|
|         672|  -13.619361|  -13.565098|  -13.341392|   -7.208658|
|         673|  -13.645096|  -13.579309|  -13.366738|   -7.208658|
|         674|  -13.680148|  -13.601663|  -13.401427|   -7.208658|
|         675|  -13.725376|  -13.632382|  -13.446314|   -7.208658|
|         676|  -13.782217|  -13.671948|  -13.502843|   -7.208658|
|         677|  -13.852939|  -13.721125|  -13.573318|   -7.208658|
|         678|  -13.941174|  -13.780975|  -13.661473|   -7.208658|
|         679|  -14.052779|  -13.852827|  -13.773499|   -7.208658|
|         680|  -14.196911|  -13.937871|  -13.919766|   -7.208658|
|         681|  -14.381343|  -14.035516|  -14.113257|   -7.208658|
|         682|  -14.543322|  -14.137717|  -14.303480|   -7.208658|
|         683|  -14.474047|  -14.216624|  -14.233022|   -7.208658|
|         684|  -14.310458|  -14.229844|  -14.052161|   -7.208658|
|         685|  -14.182115|  -14.178698|  -13.915685|   -7.208658|
|         686|  -14.090050|  -14.105907|  -13.819624|   -7.208658|
|         687|  -14.024116|  -14.038296|  -13.751409|   -7.208658|
|         688|  -13.977417|  -13.983392|  -13.703237|   -7.208658|
|         689|  -13.945671|  -13.941651|  -13.670452|   -7.208658|
|         690|  -13.926210|  -13.911855|  -13.650203|   -7.208658|
|         691|  -13.917340|  -13.892682|  -13.640704|   -7.208658|
|         692|  -13.918038|  -13.883084|  -13.640871|   -7.208658|
|         693|  -13.927720|  -13.882300|  -13.650092|   -7.208658|
|         694|  -13.946199|  -13.889874|  -13.668156|   -7.208658|
|         695|  -13.973611|  -13.905586|  -13.695184|   -7.208658|
|         696|  -14.010465|  -13.929462|  -13.731677|   -7.208658|
|         697|  -14.057708|  -13.961770|  -13.778585|   -7.208658|
|         698|  -14.116908|  -14.003042|  -13.837483|   -7.208658|
|         699|  -14.190543|  -14.054095|  -13.910889|   -7.208658|
|         700|  -14.282569|  -14.116055|  -14.002895|   -7.208658|
|         701|  -14.399391|  -14.190273|  -14.120313|   -7.208658|
|         702|  -14.550759|  -14.277802|  -14.274470|   -7.208658|
|         703|  -14.740913|  -14.377290|  -14.476406|   -7.208658|
|         704|  -14.873655|  -14.478094|  -14.638298|   -7.208658|
|         705|  -14.766244|  -14.547707|  -14.521302|   -7.208658|
|         706|  -14.606288|  -14.546836|  -14.345964|   -7.208658|
|         707|  -14.485454|  -14.488464|  -14.218079|   -7.208658|
|         708|  -14.398887|  -14.415380|  -14.127947|   -7.208658|
|         709|  -14.336946|  -14.349893|  -14.063921|   -7.208658|
|         710|  -14.293275|  -14.297469|  -14.018876|   -7.208658|
|         711|  -14.263970|  -14.258048|  -13.988591|   -7.208658|
|         712|  -14.246565|  -14.230297|  -13.970434|   -7.208658|
|         713|  -14.239526|  -14.212963|  -13.962785|   -7.208658|
|         714|  -14.241912|  -14.205046|  -13.964655|   -7.208658|
|         715|  -14.253228|  -14.205841|  -13.975520|   -7.208658|
|         716|  -14.273341|  -14.214931|  -13.995226|   -7.208658|
|         717|  -14.302444|  -14.232129|  -14.023951|   -7.208658|
|         718|  -14.341143|  -14.257535|  -14.062292|   -7.208658|
|         719|  -14.390456|  -14.291466|  -14.111270|   -7.208658|
|         720|  -14.452097|  -14.334480|  -14.172619|   -7.208658|
|         721|  -14.528775|  -14.387454|  -14.249096|   -7.208658|
|         722|  -14.624810|  -14.451580|  -14.345175|   -7.208658|
|         723|  -14.747188|  -14.528188|  -14.468389|   -7.208658|
|         724|  -14.906094|  -14.618154|  -14.630922|   -7.208658|
|         725|  -15.099553|  -14.719179|  -14.839556|   -7.208658|
|         726|  -15.193179|  -14.817484|  -14.959993|   -7.208658|
|         727|  -15.057723|  -14.876211|  -14.809087|   -7.208658|
|         728|  -14.903649|  -14.861796|  -14.641592|   -7.208658|
|         729|  -14.789974|  -14.797801|  -14.521771|   -7.208658|
|         730|  -14.708586|  -14.725171|  -14.437182|   -7.208658|
|         731|  -14.650384|  -14.661951|  -14.377053|   -7.208658|
|         732|  -14.609629|  -14.612040|  -14.335025|   -7.208658|
|         733|  -14.582690|  -14.574846|  -14.307159|   -7.208658|
|         734|  -14.567301|  -14.549113|  -14.291049|   -7.208658|
|         735|  -14.562050|  -14.533573|  -14.285216|   -7.208658|
|         736|  -14.566108|  -14.527295|  -14.288770|   -7.208658|
|         737|  -14.579042|  -14.529666|  -14.301254|   -7.208658|
|         738|  -14.600780|  -14.540266|  -14.322583|   -7.208658|
|         739|  -14.631598|  -14.558985|  -14.353031|   -7.208658|
|         740|  -14.672184|  -14.585941|  -14.393271|   -7.208658|
|         741|  -14.723630|  -14.621456|  -14.444390|   -7.208658|
|         742|  -14.787809|  -14.666234|  -14.508295|   -7.208658|
|         743|  -14.867674|  -14.721175|  -14.587987|   -7.208658|
|         744|  -14.967954|  -14.787538|  -14.688393|   -7.208658|
|         745|  -15.096221|  -14.866596|  -14.817734|   -7.208658|
|         746|  -15.262768|  -14.958938|  -14.989066|   -7.208658|
|         747|  -15.455417|  -15.060997|  -15.200887|   -7.208658|
|         748|  -15.502397|  -15.155490|  -15.268859|   -7.208658|

----------------------------- Solver Exit -------------------------------
All convergence criteria satisfied.
+-----------------------------------------------------------------------+
|      Convergence Field     |     Value    |   Criterion  |  Converged |
+-----------------------------------------------------------------------+
|                      rms[T]|      -10.0333|         < -10|         Yes|
|                      rms[P]|      -15.5024|         < -10|         Yes|
|                      rms[U]|      -15.1555|         < -10|         Yes|
|                      rms[V]|      -15.2689|         < -10|         Yes|
|                      rms[k]|      -17.3521|         < -10|         Yes|
|                      rms[w]|      -13.4939|         < -10|         Yes|
+-----------------------------------------------------------------------+
-------------------------------------------------------------------------
+-----------------------------------------------------------------------+
|        File Writing Summary       |              Filename             |
+-----------------------------------------------------------------------+
|SU2 restart                        |restart_verification_mixtureviscosity_smallbox_turb_wilke.dat|
|                                   |                    (0.366642 MB/s)|
|Paraview                           |flow_verification_mixtureviscosity_smallbox_turb_wilke_00000748.vtu|
|                                   |                   (0.0429064 MB/s)|
|Paraview surface                   |surface_verification_mixtureviscosity_smallbox_turb_wilke.vtu|
|                                   |                     (1.62703 MB/s)|
+-----------------------------------------------------------------------+

------------------------- Solver Postprocessing -------------------------
Deleted CNumerics container.
Deleted CIntegration container.
Deleted CSolver container.
Deleted CIteration container.
Deleted CInterface container.
Deleted CGeometry container.
Deleted CFreeFormDefBox class.
Deleted CSurfaceMovement class.
Deleted CVolumetricMovement class.
Deleted CConfig container.
Deleted nInst container.
Deleted COutput class.
-------------------------------------------------------------------------


-------------------------- Performance Summary --------------------------
Simulation totals:
   Wall-clock time (hrs):   0.0300956 |            Core-hrs:     4.21338
                   Cores:         140 |          DOFs/point:           7
             Points/core:     2.71429 |   Ghost points/core:     10.1571
 Ghost/Owned Point Ratio:     3.74211 | 

Preprocessing phase:
       Preproc. Time (s):    0.618379 |   Preproc. Time (%):    0.570755

Compute phase:
        Compute Time (s):     94.9015 |    Compute Time (%):     87.5927
         Iteration count:         749 |         Avg. s/iter:    0.126704
     Core-s/iter/Mpoints:     9843.83 |           Mpoints/s:   0.0142221

Output phase:
         Output Time (s):     12.8242 |     Output Time (%):     11.8366
            Output count:           1 |       Avg. s/output:     12.8242
 Restart Aggr. BW (MB/s):    0.366642 |           MB/s/core:  0.00261887
-------------------------------------------------------------------------


------------------------- Exit Success (SU2_CFD) ------------------------

------------------------------------------------------------
A process or daemon was unable to complete a TCP connection
to another process:
  Local host:    rb-hpc-b05n32
  Remote host:   rb-hpc-b05n26
This is usually caused by a firewall on the remote host. Please
check that any firewall (e.g., iptables) has been disabled and
try again.
------------------------------------------------------------
------------------------------------------------------------
A process or daemon was unable to complete a TCP connection
to another process:
  Local host:    rb-hpc-b05n32
  Remote host:   rb-hpc-b05n35
This is usually caused by a firewall on the remote host. Please
check that any firewall (e.g., iptables) has been disabled and
try again.
------------------------------------------------------------
------------------------------------------------------------
A process or daemon was unable to complete a TCP connection
to another process:
  Local host:    rb-hpc-b05n32
  Remote host:   rb-hpc-b05n09
This is usually caused by a firewall on the remote host. Please
check that any firewall (e.g., iptables) has been disabled and
try again.
------------------------------------------------------------
------------------------------------------------------------
A process or daemon was unable to complete a TCP connection
to another process:
  Local host:    rb-hpc-b05n32
  Remote host:   rb-hpc-b05n28
This is usually caused by a firewall on the remote host. Please
check that any firewall (e.g., iptables) has been disabled and
try again.
------------------------------------------------------------
------------------------------------------------------------
A process or daemon was unable to complete a TCP connection
to another process:
  Local host:    rb-hpc-b05n32
  Remote host:   rb-hpc-b05n13
This is usually caused by a firewall on the remote host. Please
check that any firewall (e.g., iptables) has been disabled and
try again.
------------------------------------------------------------
------------------------------------------------------------
A process or daemon was unable to complete a TCP connection
to another process:
  Local host:    rb-hpc-b05n32
  Remote host:   rb-hpc-b05n07
This is usually caused by a firewall on the remote host. Please
check that any firewall (e.g., iptables) has been disabled and
try again.
------------------------------------------------------------
------------------------------------------------------------
A process or daemon was unable to complete a TCP connection
to another process:
  Local host:    rb-hpc-b05n32
  Remote host:   rb-hpc-b05n03
This is usually caused by a firewall on the remote host. Please
check that any firewall (e.g., iptables) has been disabled and
try again.
------------------------------------------------------------
------------------------------------------------------------
A process or daemon was unable to complete a TCP connection
to another process:
  Local host:    rb-hpc-b05n32
  Remote host:   rb-hpc-b05n25
This is usually caused by a firewall on the remote host. Please
check that any firewall (e.g., iptables) has been disabled and
try again.
------------------------------------------------------------
