scsub> Executing:  'cd /home/hem1dev/Codes/SU2_Github_Mark_Test/SU2/Venturi'


WARNING: CONV_CRITERIA is deprecated. SU2 will choose the criteria automatically based on the CONV_FIELD.
That is, RESIDUAL for any RMS_* BGS_* value, and CAUCHY for coefficients such as DRAG etc.


-------------------------------------------------------------------------
|    ___ _   _ ___                                                      |
|   / __| | | |_  )   Release 7.1.1 "Blackbird"                         |
|   \__ \ |_| |/ /                                                      |
|   |___/\___//___|   Suite (Computational Fluid Dynamics Code)         |
|                                                                       |
-------------------------------------------------------------------------
| SU2 Project Website: https://su2code.github.io                        |
|                                                                       |
| The SU2 Project is maintained by the SU2 Foundation                   |
| (http://su2foundation.org)                                            |
-------------------------------------------------------------------------
| Copyright 2012-2021, SU2 Contributors                                 |
|                                                                       |
| SU2 is free software; you can redistribute it and/or                  |
| modify it under the terms of the GNU Lesser General Public            |
| License as published by the Free Software Foundation; either          |
| version 2.1 of the License, or (at your option) any later version.    |
|                                                                       |
| SU2 is distributed in the hope that it will be useful,                |
| but WITHOUT ANY WARRANTY; without even the implied warranty of        |
| MERCHANTABILITY or FITNESS FOR A PARTICULAR PURPOSE. See the GNU      |
| Lesser General Public License for more details.                       |
|                                                                       |
| You should have received a copy of the GNU Lesser General Public      |
| License along with SU2. If not, see <http://www.gnu.org/licenses/>.   |
-------------------------------------------------------------------------


WARNING: CONV_CRITERIA is deprecated. SU2 will choose the criteria automatically based on the CONV_FIELD.
That is, RESIDUAL for any RMS_* BGS_* value, and CAUCHY for coefficients such as DRAG etc.


Parsing config file for zone 0


WARNING: CONV_CRITERIA is deprecated. SU2 will choose the criteria automatically based on the CONV_FIELD.
That is, RESIDUAL for any RMS_* BGS_* value, and CAUCHY for coefficients such as DRAG etc.


----------------- Physical Case Definition ( Zone 0 ) -------------------
Incompressible RANS equations.
Turbulence model: Menter's SST
Hybrid RANS/LES: No Hybrid RANS/LES
No restart solution, use the values at infinity (freestream).
Dimensional simulation.
The reference area is 1 m^2.
The semi-span will be computed using the max y(3D) value.
The reference length is 1 m.
Input mesh file name: c6_cms_venturi.cgns

--------------- Space Numerical Integration ( Zone 0 ) ------------------
Flux difference splitting (FDS) upwind scheme for the flow inviscid terms.
Second order integration in space, with slope limiter.
No slope-limiting method. 
Average of gradients with correction (viscous flow terms).
Average of gradients with correction (viscous turbulence terms).
Gradient for upwind reconstruction: Green-Gauss.
Gradient for viscous and source terms: Green-Gauss.

--------------- Time Numerical Integration  ( Zone 0 ) ------------------
Local time stepping (steady state simulation).
Euler implicit method for the flow equations.
FGMRES is used for solving the linear system.
Using a ILU(0) preconditioning.
Convergence criteria of the linear solver: 1e-08.
Max number of linear iterations: 50.
No CFL adaptation.
Courant-Friedrichs-Lewy number:      100
Euler implicit time integration for the turbulence model.

------------------ Convergence Criteria  ( Zone 0 ) ---------------------
Maximum number of solver subiterations: 10000.
Begin convergence monitoring at iteration 10.
Residual minimum value: 1e-10.
Cauchy series min. value: 1e-06.
Number of Cauchy elements: 100.
Begin windowed time average at iteration 0.

-------------------- Output Information ( Zone 0 ) ----------------------
Writing solution files every 1000 iterations.
Writing the convergence history file every 1 inner iterations.
Writing the screen convergence history every 1 inner iterations.
The tabular file format is CSV (.csv).
Convergence history file name: history_test.
Forces breakdown file name: forces_breakdown.dat.
Surface file name: surface_flow_venturi_mixturedensity_30kW_fine_test.
Volume file name: flow_venturi_mixturedensity_30kW_fine_test.
Restart file name: restart_venturi_mixturedensity_30kW_fine_test.dat.

------------- Config File Boundary Information ( Zone 0 ) ---------------
+-----------------------------------------------------------------------+
|                        Marker Type|                        Marker Name|
+-----------------------------------------------------------------------+
|                     Symmetry plane|                               axis|
+-----------------------------------------------------------------------+
|                     Inlet boundary|                          gas_inlet|
|                                   |                          air_inlet|
+-----------------------------------------------------------------------+
|                    Outlet boundary|                             outlet|
+-----------------------------------------------------------------------+
|                     Heat flux wall|            wall-component1-surface|
+-----------------------------------------------------------------------+

-------------------- Output Preprocessing ( Zone 0 ) --------------------
Screen output fields: INNER_ITER, RMS_PRESSURE, RMS_VELOCITY-X, RMS_VELOCITY-Y, RMS_PASSIVE_SCALAR
History output group(s): RMS_RES, AERO_COEFF, FLOW_COEFF
Ignoring Convergence Field(s): RMS_DENSITY 
Convergence field(s): RMS_PRESSURE, RMS_VELOCITY-X, RMS_VELOCITY-Y, RMS_TKE
Warning: No (valid) fields chosen for time convergence monitoring. Time convergence monitoring inactive.
  Info: Ignoring the following volume output fields/groups:
  SOURCE, LOOKUP
Volume output fields: DENSITY, SOLUTION, PRIMITIVE, RESIDUAL, COORDINATES

------------------- Geometry Preprocessing ( Zone 0 ) -------------------
Reading the CGNS file: c6_cms_venturi.cgns.
CGNS file contains 1 database(s).
Database 1, Base:  cell dimension of 2, physical dimension of 2.
1 total zone(s).
Zone 1, Zone: 292948 total vertices, 295883 total elements.
Loading CoordinateX values into linear partitions.
Loading CoordinateY values into linear partitions.
Distributing connectivity across all ranks.
Number of connectivity sections is 6.
Section gas_inlet contains 51 elements of type Mixed.
Section air_inlet contains 150 elements of type Mixed.
Section outlet contains 157 elements of type Mixed.
Section axis contains 1721 elements of type Mixed.
Section component1-surface contains 290183 elements of type Mixed.
Section wall-component1-surface contains 3621 elements of type Mixed.
Loading surface section gas_inlet from file.
Loading surface section air_inlet from file.
Loading surface section outlet from file.
Loading surface section axis from file.
Loading volume section component1-surface from file.
Loading surface section wall-component1-surface from file.
Two dimensional problem.
292948 grid points before partitioning.
290183 volume elements before partitioning.
5 surface markers.
51 boundary elements in index 0 (Marker = gas_inlet).
150 boundary elements in index 1 (Marker = air_inlet).
157 boundary elements in index 2 (Marker = outlet).
1721 boundary elements in index 3 (Marker = axis).
3621 boundary elements in index 4 (Marker = wall-component1-surface).
Executing the partitioning functions.
Building the graph adjacency structure.
Calling ParMETIS... graph partitioning complete (13660 edge cuts).
Distributing ParMETIS coloring.
Rebalancing vertices.
Rebalancing volume element connectivity.
Rebalancing markers and surface elements.
320613 vertices including ghost points. 
303879 interior elements including halo cells. 
174 triangles.
303705 quadrilaterals.
Establishing MPI communication patterns.
Setting point connectivity.
Renumbering points (Reverse Cuthill McKee Ordering).
Recomputing point connectivity.
Setting element connectivity.
Checking the numerical grid orientation.
All volume elements are correctly orientend.
All surface elements are correctly orientend.
Identifying edges and vertices.
Setting the control volume structure.
Area of the computational grid: 0.00286002.
Searching for the closest normal neighbors to the surfaces.
Storing a mapping from global to local point index.
Compute the surface curvature.
Max K: 25766.3. Mean K: 66.0693. Standard deviation K: 1007.76.
Checking for periodicity.
Computing mesh quality statistics for the dual control volumes.
+--------------------------------------------------------------+
|           Mesh Quality Metric|        Minimum|        Maximum|
+--------------------------------------------------------------+
|    Orthogonality Angle (deg.)|        45.2115|             90|
|     CV Face Area Aspect Ratio|              1|        10.3208|
|           CV Sub-Volume Ratio|              1|        9.85984|
+--------------------------------------------------------------+
Finding max control volume width.
Communicating number of neighbors.
Wetted area = 0 m^2.
Area projection in the x-plane = 0 m, y-plane = 0 m.
Max. coordinate in the x-direction = -1e+10 m, y-direction = -1e+10 m.
Min. coordinate in the x-direction = 1e+10 m, y-direction = 1e+10 m.
Checking if Euler & Symmetry markers are straight/plane:
Boundary marker axis is a single straight.
Computing wall distances.

-------------------- Solver Preprocessing ( Zone 0 ) --------------------
Incompressible flow: rho_ref, vel_ref, temp_ref, p_ref
are set to 1.0 in order to perform a dimensional calculation.
Force coefficients computed using initial values.
The reference area for force coeffs. is 1 m^2.
The reference length for force coeffs. is 1 m.
The pressure is decomposed into thermodynamic and dynamic components.
The initial value of the dynamic pressure is 0.
Mach number: 0, computed using fluid speed of sound.
For external flows, the initial state is imposed at the far-field.
Angle of attack (deg): 0, computed using the initial velocity.
Side slip angle (deg): 0, computed using the initial velocity.
Reynolds number per meter: 66852.4, computed using initial values.
Reynolds number is a byproduct of inputs only (not used internally).
SI units only. The grid should be dimensional (meters).
Energy equation is active and coupled for variable density.

-- Models:
+------------------------------------------------------------------------------+
|          Viscosity Model|        Conductivity Model|              Fluid Model|
+------------------------------------------------------------------------------+
|               SUTHERLAND|          CONSTANT_PRANDTL|+------------------------------------------------------------------------------+
-- Fluid properties:
+------------------------------------------------------------------------------+
|                  Name|    Dim. value|    Ref. value|      Unit|Non-dim. value|
+------------------------------------------------------------------------------+
|        Ref. Viscosity|     1.716e-05|             1|   N.s/m^2|     1.716e-05|
|      Sutherland Temp.|        273.15|             1|         K|        273.15|
|     Sutherland Const.|         110.4|             1|         K|         110.4|
+------------------------------------------------------------------------------+
|        Prandtl (Lam.)|             -|             -|         -|          0.72|
|       Prandtl (Turb.)|             -|             -|         -|           0.9|
+------------------------------------------------------------------------------+
-- Initial and free-stream conditions:
+------------------------------------------------------------------------------+
|                  Name|    Dim. value|    Ref. value|      Unit|Non-dim. value|
+------------------------------------------------------------------------------+
|      Dynamic Pressure|             0|             1|        Pa|             0|
|        Total Pressure|           0.6|             1|        Pa|           0.6|
|               Density|           1.2|             1|    kg/m^3|           1.2|
|           Temperature|           300|             1|         K|           300|
|            Velocity-X|             1|             1|       m/s|             1|
|            Velocity-Y|             0|             1|       m/s|             0|
|    Velocity Magnitude|             1|             1|       m/s|             1|
+------------------------------------------------------------------------------+
|             Viscosity|     1.795e-05|             1|   N.s/m^2|     1.795e-05|
|          Conductivity|             -|             1|   W/m^2.K|             -|
|     Turb. Kin. Energy|       0.00375|             1|   m^2/s^2|       0.00375|
|     Spec. Dissipation|       25.0696|             1|       1/s|       25.0696|
+------------------------------------------------------------------------------+
|           Mach Number|             -|             -|         -|             0|
|       Reynolds Number|             -|             -|         -|       66852.4|
+------------------------------------------------------------------------------+
Initialize Jacobian structure (Navier-Stokes). MG level: 0.
Initialize Jacobian structure (passive scalar model).
Initialize Jacobian structure (SST model).

------------------- Numerics Preprocessing ( Zone 0 ) -------------------

----------------- Integration Preprocessing ( Zone 0 ) ------------------

------------------- Iteration Preprocessing ( Zone 0 ) ------------------
Euler/Navier-Stokes/RANS fluid iteration.

------------------------------ Begin Solver -----------------------------

Simulation Run using the Single-zone Driver
Initializing passive scalar (initial condition).
initialization = 1 1
+----------------------------------------------------------------+
|  Inner_Iter|      rms[P]|      rms[U]|      rms[V]|      rms[c]|
+----------------------------------------------------------------+
|           0|   -4.992054|   -4.723187|   -4.241127|   -5.596538|
|           1|   -5.001968|   -4.756325|   -4.071201|   -5.180083|
|           2|   -5.407383|   -4.614396|   -4.103142|   -5.344776|
|           3|   -5.539277|   -4.773345|   -4.130227|   -5.476520|
|           4|   -5.571469|   -4.853024|   -4.213165|   -5.527342|
|           5|   -5.542173|   -4.869198|   -4.357019|   -5.558648|
|           6|   -5.615001|   -4.814678|   -4.534059|   -5.605974|
|           7|   -5.649309|   -4.753960|   -4.666598|   -5.665911|
|           8|   -5.659295|   -4.707323|   -4.592311|   -5.710145|
|           9|   -5.644371|   -4.668066|   -4.418131|   -5.729250|
|          10|   -5.612486|   -4.631864|   -4.272667|   -5.730505|
|          11|   -5.588615|   -4.596142|   -4.187394|   -5.719440|
|          12|   -5.584832|   -4.561319|   -4.150696|   -5.701942|
|          13|   -5.595134|   -4.528211|   -4.141872|   -5.682482|
|          14|   -5.609681|   -4.496304|   -4.146124|   -5.664547|
|          15|   -5.622874|   -4.464653|   -4.153309|   -5.649513|
|          16|   -5.633016|   -4.432871|   -4.156948|   -5.636882|
|          17|   -5.639948|   -4.401423|   -4.153739|   -5.625552|
|          18|   -5.644556|   -4.370820|   -4.137348|   -5.615534|
|          19|   -5.647353|   -4.341001|   -4.116313|   -5.605448|
|          20|   -5.649246|   -4.312139|   -4.093623|   -5.595351|
|          21|   -5.651120|   -4.284116|   -4.071527|   -5.584907|
|          22|   -5.653178|   -4.256974|   -4.050838|   -5.574178|
|          23|   -5.655351|   -4.230795|   -4.031775|   -5.563145|
|          24|   -5.657471|   -4.205681|   -4.014144|   -5.551855|
|          25|   -5.659449|   -4.181618|   -3.997750|   -5.540265|
|          26|   -5.661276|   -4.158521|   -3.982470|   -5.528366|
|          27|   -5.663016|   -4.136335|   -3.968319|   -5.516141|
|          28|   -5.664753|   -4.115051|   -3.955369|   -5.503540|
|          29|   -5.666564|   -4.094667|   -3.943649|   -5.490612|
|          30|   -5.668484|   -4.075119|   -3.933128|   -5.477568|
|          31|   -5.670501|   -4.056352|   -3.923664|   -5.464462|
|          32|   -5.672590|   -4.038291|   -3.915016|   -5.451237|
|          33|   -5.674661|   -4.020883|   -3.906790|   -5.437928|
|          34|   -5.676689|   -4.004047|   -3.897454|   -5.424626|
|          35|   -5.678632|   -3.987712|   -3.888312|   -5.411439|
|          36|   -5.680367|   -3.971831|   -3.879143|   -5.398490|
|          37|   -5.682035|   -3.956445|   -3.870089|   -5.385769|
|          38|   -5.683644|   -3.941545|   -3.861262|   -5.373240|
|          39|   -5.685214|   -3.927127|   -3.852469|   -5.361027|
|          40|   -5.686715|   -3.913151|   -3.843028|   -5.349238|
|          41|   -5.688265|   -3.899615|   -3.834431|   -5.337806|
|          42|   -5.689875|   -3.886499|   -3.826466|   -5.326683|
|          43|   -5.691522|   -3.873818|   -3.819191|   -5.315841|
|          44|   -5.693044|   -3.861544|   -3.812614|   -5.305323|
|          45|   -5.694663|   -3.849685|   -3.806699|   -5.295108|
|          46|   -5.696374|   -3.838281|   -3.801380|   -5.285247|
|          47|   -5.698054|   -3.827287|   -3.795548|   -5.275730|
|          48|   -5.699870|   -3.816623|   -3.790255|   -5.266503|
|          49|   -5.701530|   -3.806291|   -3.785440|   -5.257573|
|          50|   -5.703021|   -3.796275|   -3.781157|   -5.248904|
|          51|   -5.704418|   -3.786584|   -3.777367|   -5.240437|
|          52|   -5.705778|   -3.777164|   -3.774062|   -5.232195|
|          53|   -5.707024|   -3.767969|   -3.771208|   -5.224196|
|          54|   -5.708177|   -3.759020|   -3.768743|   -5.216447|
|          55|   -5.709173|   -3.750341|   -3.766617|   -5.208894|
|          56|   -5.710134|   -3.741942|   -3.764769|   -5.201517|
|          57|   -5.710969|   -3.733810|   -3.763186|   -5.194353|
|          58|   -5.711666|   -3.725914|   -3.761822|   -5.187348|
|          59|   -5.712173|   -3.718265|   -3.760686|   -5.180486|
|          60|   -5.712483|   -3.710849|   -3.759720|   -5.173742|
|          61|   -5.712632|   -3.703730|   -3.758920|   -5.167085|
|          62|   -5.712632|   -3.696889|   -3.758233|   -5.160560|
|          63|   -5.712369|   -3.690317|   -3.757587|   -5.154172|
|          64|   -5.712015|   -3.683977|   -3.756911|   -5.147955|
|          65|   -5.711520|   -3.677853|   -3.756180|   -5.141897|
|          66|   -5.711037|   -3.671815|   -3.755357|   -5.136024|
|          67|   -5.710615|   -3.665757|   -3.754314|   -5.130343|
|          68|   -5.710157|   -3.659671|   -3.753007|   -5.124911|
|          69|   -5.709607|   -3.653668|   -3.751522|   -5.119762|
|          70|   -5.709129|   -3.647830|   -3.749882|   -5.114918|
|          71|   -5.708677|   -3.642221|   -3.748211|   -5.110443|
|          72|   -5.708511|   -3.636802|   -3.746685|   -5.106090|
|          73|   -5.708369|   -3.631552|   -3.745608|   -5.101980|
|          74|   -5.708548|   -3.626332|   -3.745087|   -5.097902|
|          75|   -5.708352|   -3.621126|   -3.744980|   -5.094014|
|          76|   -5.708203|   -3.615867|   -3.744918|   -5.090177|
|          77|   -5.708226|   -3.610558|   -3.744847|   -5.086329|
|          78|   -5.707744|   -3.605226|   -3.744890|   -5.082575|
|          79|   -5.707351|   -3.599751|   -3.744961|   -5.078795|
|          80|   -5.706681|   -3.594203|   -3.745060|   -5.074957|
|          81|   -5.705897|   -3.588528|   -3.745459|   -5.071030|
|          82|   -5.704803|   -3.582715|   -3.746298|   -5.067084|
|          83|   -5.703541|   -3.576997|   -3.747750|   -5.063129|
|          84|   -5.701857|   -3.571500|   -3.749944|   -5.059082|
|          85|   -5.700055|   -3.566282|   -3.752750|   -5.055026|
|          86|   -5.698390|   -3.561368|   -3.755747|   -5.051091|
|          87|   -5.696826|   -3.556687|   -3.759010|   -5.047316|
|          88|   -5.695036|   -3.552160|   -3.762712|   -5.043597|
|          89|   -5.693204|   -3.547790|   -3.766664|   -5.039878|
|          90|   -5.690511|   -3.543396|   -3.770751|   -5.036052|
|          91|   -5.686400|   -3.538651|   -3.774185|   -5.031872|
|          92|   -5.680698|   -3.533454|   -3.776358|   -5.027338|
|          93|   -5.672885|   -3.527856|   -3.776735|   -5.022722|
|          94|   -5.663341|   -3.521757|   -3.775534|   -5.018192|
|          95|   -5.653184|   -3.515198|   -3.772056|   -5.014000|
|          96|   -5.643984|   -3.508516|   -3.766372|   -5.010338|
|          97|   -5.637568|   -3.502346|   -3.758932|   -5.007048|
|          98|   -5.633199|   -3.496745|   -3.750032|   -5.003475|
|          99|   -5.628273|   -3.491237|   -3.739491|   -4.999181|
|         100|   -5.620912|   -3.485439|   -3.727826|   -4.994336|
|         101|   -5.608511|   -3.478150|   -3.712591|   -4.989391|
|         102|   -5.592933|   -3.469447|   -3.692858|   -4.984404|
|         103|   -5.576175|   -3.460329|   -3.673467|   -4.980262|
|         104|   -5.560523|   -3.450919|   -3.656165|   -4.977471|
|         105|   -5.554177|   -3.443584|   -3.640128|   -4.975992|
|         106|   -5.552798|   -3.438589|   -3.629389|   -4.974206|
|         107|   -5.551243|   -3.434151|   -3.620602|   -4.971970|
|         108|   -5.546666|   -3.429792|   -3.612389|   -4.968648|
|         109|   -5.535453|   -3.423528|   -3.602964|   -4.964929|
|         110|   -5.521955|   -3.415928|   -3.592650|   -4.962641|
|         111|   -5.516360|   -3.409768|   -3.583119|   -4.962191|
|         112|   -5.518253|   -3.407820|   -3.575580|   -4.962495|
|         113|   -5.517918|   -3.406076|   -3.571335|   -4.961583|
|         114|   -5.520792|   -3.404942|   -3.564460|   -4.960247|
|         115|   -5.519343|   -3.404815|   -3.558869|   -4.958050|
|         116|   -5.509611|   -3.400663|   -3.551887|   -4.956409|
|         117|   -5.494386|   -3.392706|   -3.541875|   -4.955926|
|         118|   -5.490416|   -3.385947|   -3.534749|   -4.957505|
|         119|   -5.495600|   -3.383029|   -3.532525|   -4.957026|
|         120|   -5.508102|   -3.383540|   -3.534878|   -4.958462|
|         121|   -5.517070|   -3.385534|   -3.536490|   -4.956788|
|         122|   -5.525438|   -3.387649|   -3.533130|   -4.957513|
|         123|   -5.522176|   -3.388408|   -3.530264|   -4.954477|
|         124|   -5.511621|   -3.387134|   -3.522845|   -4.954600|
|         125|   -5.500606|   -3.382853|   -3.513814|   -4.956066|
|         126|   -5.502207|   -3.377669|   -3.507192|   -4.960571|
|         127|   -5.517913|   -3.376249|   -3.504914|   -4.964428|
|         128|   -5.540597|   -3.378175|   -3.506497|   -4.965722|
|         129|   -5.558960|   -3.380783|   -3.513638|   -4.965127|
|         130|   -5.564247|   -3.384603|   -3.518056|   -4.962277|
|         131|   -5.568981|   -3.385444|   -3.516908|   -4.960798|
|         132|   -5.560043|   -3.385450|   -3.513571|   -4.957612|
|         133|   -5.550590|   -3.384371|   -3.505975|   -4.957354|
|         134|   -5.545334|   -3.383681|   -3.497994|   -4.957499|
|         135|   -5.546040|   -3.382313|   -3.491522|   -4.959803|
|         136|   -5.556823|   -3.382749|   -3.489553|   -4.962790|
|         137|   -5.574425|   -3.385208|   -3.491157|   -4.966353|
|         138|   -5.594976|   -3.389539|   -3.498935|   -4.969571|
|         139|   -5.611660|   -3.395064|   -3.506270|   -4.971381|
|         140|   -5.624392|   -3.396946|   -3.511185|   -4.971685|
|         141|   -5.632248|   -3.399596|   -3.515883|   -4.971109|
|         142|   -5.634973|   -3.403340|   -3.518605|   -4.969469|
|         143|   -5.631425|   -3.405828|   -3.519780|   -4.967785|
|         144|   -5.627845|   -3.407522|   -3.518776|   -4.966790|
|         145|   -5.621457|   -3.407919|   -3.515536|   -4.965877|
|         146|   -5.619919|   -3.407175|   -3.509982|   -4.965646|
|         147|   -5.625018|   -3.406737|   -3.507035|   -4.965279|
|         148|   -5.629982|   -3.407172|   -3.505716|   -4.964462|
|         149|   -5.632530|   -3.409541|   -3.505263|   -4.963427|
|         150|   -5.633174|   -3.412397|   -3.505477|   -4.961961|
|         151|   -5.632226|   -3.415530|   -3.507149|   -4.960159|
|         152|   -5.627768|   -3.418902|   -3.509831|   -4.957916|
|         153|   -5.623432|   -3.422487|   -3.512587|   -4.955620|
|         154|   -5.618175|   -3.426446|   -3.517375|   -4.953415|
|         155|   -5.611919|   -3.430474|   -3.522601|   -4.951556|
|         156|   -5.607643|   -3.434285|   -3.527104|   -4.950775|
|         157|   -5.606799|   -3.437553|   -3.530415|   -4.951235|
|         158|   -5.605734|   -3.440017|   -3.532194|   -4.952408|
|         159|   -5.607413|   -3.441793|   -3.533336|   -4.953771|
|         160|   -5.612119|   -3.444323|   -3.535965|   -4.955060|
|         161|   -5.615880|   -3.446728|   -3.539467|   -4.956123|
|         162|   -5.618172|   -3.449396|   -3.540919|   -4.957094|
|         163|   -5.620942|   -3.451928|   -3.542394|   -4.957786|
|         164|   -5.622747|   -3.454161|   -3.545173|   -4.958293|
|         165|   -5.623716|   -3.456196|   -3.548242|   -4.958722|
|         166|   -5.624687|   -3.458055|   -3.551884|   -4.959081|
|         167|   -5.625506|   -3.460142|   -3.556039|   -4.959374|
|         168|   -5.625839|   -3.462569|   -3.560300|   -4.959614|
|         169|   -5.625575|   -3.465360|   -3.564506|   -4.959793|
|         170|   -5.625015|   -3.468365|   -3.567612|   -4.959915|
|         171|   -5.625012|   -3.471311|   -3.567161|   -4.959902|
|         172|   -5.626855|   -3.473959|   -3.566400|   -4.959659|
|         173|   -5.628212|   -3.476505|   -3.565489|   -4.959287|
|         174|   -5.629209|   -3.478655|   -3.564006|   -4.958926|
|         175|   -5.630751|   -3.480627|   -3.562229|   -4.958563|
|         176|   -5.631636|   -3.482139|   -3.560461|   -4.958134|
|         177|   -5.632810|   -3.483261|   -3.558211|   -4.957809|
|         178|   -5.634365|   -3.484054|   -3.555867|   -4.957527|
|         179|   -5.635828|   -3.484507|   -3.553564|   -4.957198|
|         180|   -5.636985|   -3.484664|   -3.551424|   -4.956806|
|         181|   -5.638129|   -3.484505|   -3.549617|   -4.956332|
|         182|   -5.639255|   -3.484156|   -3.547987|   -4.955796|
|         183|   -5.640489|   -3.483783|   -3.546563|   -4.955239|
|         184|   -5.641687|   -3.483508|   -3.545391|   -4.954680|
|         185|   -5.642768|   -3.483348|   -3.544742|   -4.954112|
|         186|   -5.643814|   -3.483312|   -3.544472|   -4.953508|
|         187|   -5.644785|   -3.483348|   -3.544517|   -4.952862|
|         188|   -5.645851|   -3.483473|   -3.544634|   -4.952178|
|         189|   -5.646780|   -3.483669|   -3.544677|   -4.951504|
|         190|   -5.647794|   -3.483897|   -3.544570|   -4.950899|
|         191|   -5.648520|   -3.484092|   -3.544454|   -4.950341|
|         192|   -5.649863|   -3.484359|   -3.544034|   -4.949824|
|         193|   -5.650954|   -3.484593|   -3.543878|   -4.949264|
|         194|   -5.652555|   -3.484864|   -3.543467|   -4.948701|
|         195|   -5.654326|   -3.485223|   -3.543205|   -4.948115|
|         196|   -5.655941|   -3.485476|   -3.542823|   -4.947526|
|         197|   -5.657743|   -3.485768|   -3.542184|   -4.946944|
|         198|   -5.659698|   -3.486090|   -3.541562|   -4.946347|
|         199|   -5.661724|   -3.486495|   -3.540871|   -4.945681|
|         200|   -5.663630|   -3.486930|   -3.539977|   -4.944925|
|         201|   -5.665545|   -3.487320|   -3.538848|   -4.944103|
|         202|   -5.667572|   -3.487689|   -3.537829|   -4.943243|
|         203|   -5.669525|   -3.487981|   -3.536908|   -4.942367|
|         204|   -5.671354|   -3.488151|   -3.536117|   -4.941484|
|         205|   -5.673063|   -3.488164|   -3.535419|   -4.940595|
|         206|   -5.674644|   -3.488104|   -3.534836|   -4.939637|
|         207|   -5.676126|   -3.487987|   -3.534392|   -4.938622|
|         208|   -5.677408|   -3.487865|   -3.534129|   -4.937578|
|         209|   -5.678749|   -3.487624|   -3.533842|   -4.936512|
|         210|   -5.679940|   -3.487426|   -3.533652|   -4.935434|
|         211|   -5.681392|   -3.487137|   -3.533437|   -4.934393|
|         212|   -5.682554|   -3.486837|   -3.533619|   -4.933313|
|         213|   -5.683683|   -3.486517|   -3.533756|   -4.932220|
|         214|   -5.684911|   -3.486157|   -3.534097|   -4.931108|
|         215|   -5.685940|   -3.485688|   -3.534534|   -4.929917|
|         216|   -5.686980|   -3.485170|   -3.534781|   -4.928676|
|         217|   -5.688108|   -3.484678|   -3.535025|   -4.927433|
|         218|   -5.688968|   -3.484169|   -3.535195|   -4.926187|
|         219|   -5.689645|   -3.483645|   -3.535243|   -4.924971|
|         220|   -5.690353|   -3.483149|   -3.535362|   -4.923773|
|         221|   -5.690895|   -3.482614|   -3.535604|   -4.922614|
|         222|   -5.691277|   -3.481917|   -3.535866|   -4.921393|
|         223|   -5.691665|   -3.481016|   -3.536182|   -4.920115|
|         224|   -5.692094|   -3.479994|   -3.536532|   -4.918873|
|         225|   -5.692590|   -3.478876|   -3.536922|   -4.917646|
|         226|   -5.692844|   -3.477619|   -3.537404|   -4.916435|
|         227|   -5.693280|   -3.476260|   -3.537843|   -4.915295|
|         228|   -5.693707|   -3.474781|   -3.538319|   -4.914279|
|         229|   -5.694110|   -3.473296|   -3.538911|   -4.913263|
|         230|   -5.694780|   -3.471589|   -3.539428|   -4.912292|
|         231|   -5.695351|   -3.469884|   -3.540274|   -4.911360|
|         232|   -5.696068|   -3.467944|   -3.540915|   -4.910557|
|         233|   -5.696986|   -3.465958|   -3.541716|   -4.909763|
|         234|   -5.697875|   -3.463766|   -3.542344|   -4.908989|
|         235|   -5.699096|   -3.461553|   -3.542988|   -4.908329|
|         236|   -5.700090|   -3.459259|   -3.543692|   -4.907766|
|         237|   -5.701194|   -3.457000|   -3.544153|   -4.907240|
|         238|   -5.702517|   -3.454877|   -3.544758|   -4.906766|
|         239|   -5.703633|   -3.452758|   -3.545531|   -4.906314|
|         240|   -5.705040|   -3.450747|   -3.546360|   -4.905956|
|         241|   -5.706574|   -3.448810|   -3.547615|   -4.905603|
|         242|   -5.708018|   -3.446831|   -3.549207|   -4.905319|
|         243|   -5.709690|   -3.444775|   -3.551041|   -4.905049|
|         244|   -5.711412|   -3.442755|   -3.553155|   -4.904816|
|         245|   -5.713208|   -3.440738|   -3.555445|   -4.904661|
|         246|   -5.715116|   -3.438769|   -3.558154|   -4.904586|
|         247|   -5.717031|   -3.436918|   -3.560929|   -4.904602|
|         248|   -5.719279|   -3.434982|   -3.563714|   -4.904885|
|         249|   -5.721394|   -3.433036|   -3.566944|   -4.905228|
|         250|   -5.723876|   -3.431118|   -3.570300|   -4.905582|
|         251|   -5.726409|   -3.429117|   -3.573754|   -4.905962|
|         252|   -5.729063|   -3.427240|   -3.577378|   -4.906336|
|         253|   -5.731826|   -3.425125|   -3.580570|   -4.906758|
|         254|   -5.734919|   -3.423104|   -3.583841|   -4.907277|
|         255|   -5.738219|   -3.420957|   -3.587002|   -4.907885|
|         256|   -5.741580|   -3.418887|   -3.590516|   -4.908521|
|         257|   -5.744926|   -3.416760|   -3.593851|   -4.909172|
|         258|   -5.748637|   -3.414756|   -3.597383|   -4.909854|
|         259|   -5.752161|   -3.412802|   -3.601130|   -4.910769|
|         260|   -5.756012|   -3.410980|   -3.604835|   -4.911811|
|         261|   -5.759835|   -3.409287|   -3.609131|   -4.912850|
|         262|   -5.763692|   -3.407682|   -3.613693|   -4.913899|
|         263|   -5.767703|   -3.406127|   -3.618788|   -4.914958|
|         264|   -5.771695|   -3.404608|   -3.624450|   -4.916016|
|         265|   -5.775789|   -3.403136|   -3.630368|   -4.917084|
|         266|   -5.779928|   -3.401727|   -3.636603|   -4.918170|
|         267|   -5.784085|   -3.400415|   -3.643268|   -4.919279|
|         268|   -5.788460|   -3.399172|   -3.650005|   -4.920524|
|         269|   -5.792697|   -3.397952|   -3.656964|   -4.921806|
|         270|   -5.796917|   -3.396832|   -3.664148|   -4.923102|
|         271|   -5.801357|   -3.395726|   -3.671298|   -4.924418|
|         272|   -5.805811|   -3.394650|   -3.678591|   -4.925771|
|         273|   -5.810096|   -3.393739|   -3.686212|   -4.927141|
|         274|   -5.814720|   -3.392785|   -3.693232|   -4.928553|
|         275|   -5.818866|   -3.391895|   -3.700592|   -4.930011|
|         276|   -5.823465|   -3.391108|   -3.707247|   -4.931518|
|         277|   -5.827640|   -3.390343|   -3.713970|   -4.933095|
|         278|   -5.832099|   -3.389728|   -3.720593|   -4.934722|
|         279|   -5.836466|   -3.389115|   -3.727052|   -4.936428|
|         280|   -5.840694|   -3.388620|   -3.733826|   -4.938154|
|         281|   -5.844941|   -3.388189|   -3.739917|   -4.939916|
|         282|   -5.849169|   -3.387908|   -3.746388|   -4.941775|
|         283|   -5.853263|   -3.387754|   -3.752389|   -4.943737|
|         284|   -5.857383|   -3.387796|   -3.758551|   -4.945717|
|         285|   -5.861147|   -3.387955|   -3.764744|   -4.947716|
|         286|   -5.865119|   -3.388243|   -3.770889|   -4.949742|
|         287|   -5.868777|   -3.388672|   -3.777372|   -4.951791|
|         288|   -5.872414|   -3.389193|   -3.783767|   -4.953872|
|         289|   -5.875897|   -3.389832|   -3.790545|   -4.955984|
|         290|   -5.879212|   -3.390553|   -3.796980|   -4.958127|
|         291|   -5.882398|   -3.391364|   -3.803284|   -4.960306|
|         292|   -5.885358|   -3.392285|   -3.809376|   -4.962526|
|         293|   -5.888126|   -3.393287|   -3.815235|   -4.964783|
|         294|   -5.890889|   -3.394388|   -3.820566|   -4.967080|
|         295|   -5.893537|   -3.395562|   -3.825494|   -4.969424|
|         296|   -5.895986|   -3.396826|   -3.830391|   -4.971802|
|         297|   -5.898297|   -3.398198|   -3.834739|   -4.974216|
|         298|   -5.900525|   -3.399619|   -3.838448|   -4.976683|
|         299|   -5.902325|   -3.401154|   -3.841931|   -4.979195|
|         300|   -5.904180|   -3.402770|   -3.844697|   -4.981749|
|         301|   -5.905981|   -3.404438|   -3.846757|   -4.984373|
|         302|   -5.907359|   -3.406207|   -3.848669|   -4.987052|
|         303|   -5.908748|   -3.408089|   -3.849655|   -4.989831|
|         304|   -5.909947|   -3.410026|   -3.850282|   -4.992693|
|         305|   -5.911082|   -3.412082|   -3.850965|   -4.995617|
|         306|   -5.912218|   -3.414204|   -3.851147|   -4.998642|
|         307|   -5.912994|   -3.416431|   -3.851299|   -5.001736|
|         308|   -5.913808|   -3.418743|   -3.850959|   -5.004920|
|         309|   -5.914355|   -3.421161|   -3.850485|   -5.008194|
|         310|   -5.914906|   -3.423698|   -3.849661|   -5.011556|
|         311|   -5.915494|   -3.426323|   -3.848720|   -5.014995|
|         312|   -5.916063|   -3.429091|   -3.847746|   -5.018489|
|         313|   -5.916466|   -3.431960|   -3.846648|   -5.022056|
|         314|   -5.916785|   -3.434958|   -3.845614|   -5.025682|
|         315|   -5.916946|   -3.438045|   -3.844479|   -5.029385|
|         316|   -5.917084|   -3.441228|   -3.843552|   -5.033152|
|         317|   -5.916990|   -3.444493|   -3.842512|   -5.037003|
|         318|   -5.916842|   -3.447838|   -3.841475|   -5.040944|
|         319|   -5.916515|   -3.451251|   -3.840294|   -5.044990|
|         320|   -5.916187|   -3.454739|   -3.839040|   -5.049133|
|         321|   -5.915627|   -3.458311|   -3.837720|   -5.053377|
|         322|   -5.914919|   -3.461970|   -3.836313|   -5.057726|
|         323|   -5.914030|   -3.465695|   -3.834782|   -5.062181|
|         324|   -5.913039|   -3.469488|   -3.833171|   -5.066740|
|         325|   -5.911907|   -3.473343|   -3.831577|   -5.071408|
|         326|   -5.910562|   -3.477270|   -3.829966|   -5.076177|
|         327|   -5.909052|   -3.481252|   -3.828206|   -5.081050|
|         328|   -5.907429|   -3.485277|   -3.826320|   -5.086044|
|         329|   -5.905580|   -3.489362|   -3.824501|   -5.091137|
|         330|   -5.903533|   -3.493498|   -3.822512|   -5.096344|
|         331|   -5.901373|   -3.497676|   -3.820421|   -5.101683|
|         332|   -5.898983|   -3.501907|   -3.818374|   -5.107135|
|         333|   -5.896388|   -3.506181|   -3.816244|   -5.112711|
|         334|   -5.893564|   -3.510485|   -3.814089|   -5.118424|
|         335|   -5.890603|   -3.514831|   -3.812005|   -5.124265|
|         336|   -5.887418|   -3.519197|   -3.809917|   -5.130252|
|         337|   -5.883970|   -3.523597|   -3.807858|   -5.136369|
|         338|   -5.880324|   -3.528022|   -3.805823|   -5.142626|
|         339|   -5.876471|   -3.532474|   -3.803785|   -5.149047|
|         340|   -5.872363|   -3.536961|   -3.801864|   -5.155613|
|         341|   -5.868079|   -3.541466|   -3.799953|   -5.162334|
|         342|   -5.863492|   -3.546014|   -3.798186|   -5.169217|
|         343|   -5.858770|   -3.550573|   -3.796485|   -5.176270|
|         344|   -5.853733|   -3.555167|   -3.794952|   -5.183476|
|         345|   -5.848506|   -3.559765|   -3.793541|   -5.190862|
|         346|   -5.842981|   -3.564369|   -3.792350|   -5.198408|
|         347|   -5.837255|   -3.568970|   -3.791300|   -5.206147|
|         348|   -5.831279|   -3.573559|   -3.790481|   -5.214069|
|         349|   -5.825117|   -3.578131|   -3.789838|   -5.222185|
|         350|   -5.818685|   -3.582687|   -3.789450|   -5.230492|
|         351|   -5.812053|   -3.587221|   -3.789277|   -5.238997|
|         352|   -5.805227|   -3.591725|   -3.789371|   -5.247706|
|         353|   -5.798216|   -3.596188|   -3.789750|   -5.256596|
|         354|   -5.791028|   -3.600592|   -3.790026|   -5.265687|
|         355|   -5.783734|   -3.604924|   -3.790330|   -5.274945|
|         356|   -5.776283|   -3.609193|   -3.790973|   -5.284426|
|         357|   -5.768671|   -3.613405|   -3.791963|   -5.294059|
|         358|   -5.760950|   -3.617538|   -3.793289|   -5.303856|
|         359|   -5.753121|   -3.621577|   -3.794990|   -5.313801|
|         360|   -5.745187|   -3.625514|   -3.797119|   -5.323886|
|         361|   -5.737181|   -3.629331|   -3.799655|   -5.334090|
|         362|   -5.729055|   -3.633016|   -3.802656|   -5.344363|
|         363|   -5.720887|   -3.636549|   -3.806113|   -5.354678|
|         364|   -5.712616|   -3.639914|   -3.810068|   -5.364984|
|         365|   -5.704296|   -3.643094|   -3.814497|   -5.375176|
|         366|   -5.695881|   -3.646075|   -3.819450|   -5.385159|
|         367|   -5.687393|   -3.648843|   -3.824916|   -5.394803|
|         368|   -5.678816|   -3.651387|   -3.830947|   -5.404003|
|         369|   -5.671069|   -3.653596|   -3.827831|   -5.412565|
|         370|   -5.663042|   -3.655454|   -3.821275|   -5.420129|
|         371|   -5.655079|   -3.657372|   -3.815420|   -5.426419|
|         372|   -5.647776|   -3.659493|   -3.810132|   -5.431177|
|         373|   -5.640885|   -3.661751|   -3.805182|   -5.434242|
|         374|   -5.634201|   -3.664074|   -3.800550|   -5.435484|
|         375|   -5.627526|   -3.666386|   -3.796080|   -5.434655|
|         376|   -5.620773|   -3.668609|   -3.791657|   -5.432174|
|         377|   -5.613909|   -3.670686|   -3.787241|   -5.428406|
|         378|   -5.606960|   -3.672582|   -3.782870|   -5.422655|
|         379|   -5.599983|   -3.674282|   -3.778591|   -5.414891|
|         380|   -5.593022|   -3.675783|   -3.774460|   -5.405697|
|         381|   -5.586124|   -3.677085|   -3.770488|   -5.394989|
|         382|   -5.579319|   -3.678188|   -3.766691|   -5.382423|
|         383|   -5.572630|   -3.679084|   -3.763077|   -5.368244|
|         384|   -5.566059|   -3.679746|   -3.759632|   -5.352675|
|         385|   -5.559594|   -3.680144|   -3.756353|   -5.336126|
|         386|   -5.553235|   -3.680261|   -3.753219|   -5.319495|
|         387|   -5.546957|   -3.680081|   -3.750233|   -5.302908|
|         388|   -5.540756|   -3.679577|   -3.747395|   -5.286521|
|         389|   -5.534611|   -3.678715|   -3.744705|   -5.270321|
|         390|   -5.528689|   -3.677500|   -3.737751|   -5.254457|
|         391|   -5.522542|   -3.675846|   -3.729431|   -5.239362|
|         392|   -5.516316|   -3.673976|   -3.721325|   -5.224892|
|         393|   -5.510441|   -3.672038|   -3.713610|   -5.211075|
|         394|   -5.504885|   -3.670053|   -3.706256|   -5.197965|
|         395|   -5.499548|   -3.668081|   -3.699232|   -5.185620|
|         396|   -5.494433|   -3.666183|   -3.692514|   -5.173952|
|         397|   -5.489517|   -3.664322|   -3.686118|   -5.162994|
|         398|   -5.484851|   -3.662414|   -3.680032|   -5.152759|
|         399|   -5.480425|   -3.660466|   -3.674111|   -5.143394|
|         400|   -5.476233|   -3.658513|   -3.668266|   -5.134801|
|         401|   -5.472391|   -3.656696|   -3.662549|   -5.126931|
|         402|   -5.468902|   -3.655138|   -3.657020|   -5.119798|
|         403|   -5.465726|   -3.653821|   -3.651669|   -5.113522|
|         404|   -5.462880|   -3.652743|   -3.646542|   -5.107904|
|         405|   -5.460388|   -3.651917|   -3.641745|   -5.102935|
|         406|   -5.458204|   -3.651457|   -3.637318|   -5.098740|
|         407|   -5.456603|   -3.651897|   -3.621723|   -5.095286|
|         408|   -5.454838|   -3.652861|   -3.597450|   -5.092735|
|         409|   -5.452622|   -3.654485|   -3.575968|   -5.090812|
|         410|   -5.451802|   -3.657627|   -3.556757|   -5.089484|
|         411|   -5.452474|   -3.662521|   -3.540366|   -5.088699|
|         412|   -5.453912|   -3.668584|   -3.526323|   -5.088460|
|         413|   -5.455910|   -3.674642|   -3.513753|   -5.088607|
|         414|   -5.457997|   -3.680221|   -3.503101|   -5.089053|
|         415|   -5.460528|   -3.684729|   -3.494095|   -5.089903|
|         416|   -5.463176|   -3.688467|   -3.487073|   -5.090933|
|         417|   -5.466096|   -3.691871|   -3.481313|   -5.092139|
|         418|   -5.469025|   -3.694087|   -3.477033|   -5.093570|
|         419|   -5.471960|   -3.696543|   -3.473791|   -5.095202|
|         420|   -5.474930|   -3.698615|   -3.470075|   -5.097039|
|         421|   -5.477768|   -3.700245|   -3.464083|   -5.099098|
|         422|   -5.480538|   -3.701808|   -3.457327|   -5.101374|
|         423|   -5.483423|   -3.703034|   -3.451131|   -5.103924|
|         424|   -5.486694|   -3.703738|   -3.446007|   -5.106708|
|         425|   -5.490329|   -3.703935|   -3.442010|   -5.109637|
|         426|   -5.494212|   -3.703393|   -3.439030|   -5.112712|
|         427|   -5.498308|   -3.701962|   -3.436801|   -5.115910|
|         428|   -5.502441|   -3.699646|   -3.435025|   -5.119196|
|         429|   -5.506546|   -3.696444|   -3.433393|   -5.122620|
|         430|   -5.510605|   -3.692358|   -3.431682|   -5.126045|
|         431|   -5.514589|   -3.687411|   -3.429804|   -5.129554|
|         432|   -5.518505|   -3.681569|   -3.427767|   -5.133186|
|         433|   -5.522428|   -3.674864|   -3.425640|   -5.136859|
|         434|   -5.526423|   -3.667344|   -3.423549|   -5.140790|
|         435|   -5.530587|   -3.659034|   -3.421672|   -5.144807|
|         436|   -5.534973|   -3.649954|   -3.420225|   -5.148937|
|         437|   -5.539609|   -3.640208|   -3.419495|   -5.153170|
|         438|   -5.544520|   -3.629828|   -3.419635|   -5.157563|
|         439|   -5.549648|   -3.618749|   -3.420773|   -5.161877|
|         440|   -5.554957|   -3.607176|   -3.423403|   -5.166290|
|         441|   -5.560411|   -3.595016|   -3.425024|   -5.170485|
|         442|   -5.565985|   -3.582655|   -3.427361|   -5.174663|
|         443|   -5.571493|   -3.570801|   -3.430185|   -5.178628|
|         444|   -5.577205|   -3.560039|   -3.433000|   -5.182518|
|         445|   -5.582984|   -3.550231|   -3.436271|   -5.186187|
|         446|   -5.588821|   -3.539726|   -3.438972|   -5.189610|
|         447|   -5.594720|   -3.526894|   -3.437982|   -5.192933|
|         448|   -5.600667|   -3.512078|   -3.438222|   -5.195964|
|         449|   -5.606259|   -3.496642|   -3.437525|   -5.198558|
|         450|   -5.611689|   -3.480729|   -3.438674|   -5.200715|
|         451|   -5.616200|   -3.463805|   -3.439242|   -5.202213|
|         452|   -5.620208|   -3.445474|   -3.440046|   -5.203054|
|         453|   -5.622797|   -3.425737|   -3.438574|   -5.202437|
|         454|   -5.622996|   -3.404402|   -3.434525|   -5.200632|
|         455|   -5.623184|   -3.382557|   -3.420030|   -5.197299|
|         456|   -5.620760|   -3.360825|   -3.404663|   -5.192796|
|         457|   -5.617227|   -3.343451|   -3.387860|   -5.188899|
|         458|   -5.611051|   -3.331914|   -3.371791|   -5.185302|
|         459|   -5.605892|   -3.325030|   -3.359060|   -5.182393|
|         460|   -5.605210|   -3.321761|   -3.353631|   -5.179987|
|         461|   -5.609692|   -3.319867|   -3.358315|   -5.179384|
|         462|   -5.614544|   -3.321794|   -3.369134|   -5.181380|
|         463|   -5.630434|   -3.325096|   -3.382168|   -5.183735|
|         464|   -5.647353|   -3.325567|   -3.398640|   -5.185057|
|         465|   -5.664768|   -3.327036|   -3.419493|   -5.185568|
|         466|   -5.677333|   -3.331161|   -3.440622|   -5.184407|
|         467|   -5.691798|   -3.337177|   -3.457935|   -5.182891|
|         468|   -5.703635|   -3.342411|   -3.474499|   -5.180119|
|         469|   -5.713425|   -3.346577|   -3.490111|   -5.177044|
|         470|   -5.721765|   -3.349711|   -3.503768|   -5.173559|
|         471|   -5.728954|   -3.351716|   -3.515861|   -5.169681|
|         472|   -5.735284|   -3.353084|   -3.527748|   -5.165493|
|         473|   -5.740641|   -3.353911|   -3.539736|   -5.161012|
|         474|   -5.745094|   -3.354362|   -3.551593|   -5.156302|
|         475|   -5.749143|   -3.354490|   -3.564088|   -5.151416|
|         476|   -5.752367|   -3.354181|   -3.576035|   -5.146264|
|         477|   -5.754835|   -3.353064|   -3.585693|   -5.141053|
|         478|   -5.757878|   -3.351099|   -3.592451|   -5.135708|
|         479|   -5.760072|   -3.348072|   -3.596227|   -5.130385|
|         480|   -5.764078|   -3.344651|   -3.597935|   -5.125187|
|         481|   -5.767741|   -3.341080|   -3.598043|   -5.120008|
|         482|   -5.771570|   -3.337582|   -3.596488|   -5.114939|
|         483|   -5.775360|   -3.334455|   -3.593924|   -5.109822|
|         484|   -5.778752|   -3.331804|   -3.590761|   -5.104623|
|         485|   -5.781477|   -3.329567|   -3.588107|   -5.099364|
|         486|   -5.783678|   -3.327807|   -3.587606|   -5.094026|
|         487|   -5.785340|   -3.326512|   -3.589738|   -5.088611|
|         488|   -5.786328|   -3.325414|   -3.594587|   -5.083122|
|         489|   -5.786542|   -3.324503|   -3.601757|   -5.077568|
|         490|   -5.786132|   -3.323749|   -3.610213|   -5.071988|
|         491|   -5.785215|   -3.322896|   -3.618958|   -5.066404|
|         492|   -5.784020|   -3.321687|   -3.627466|   -5.060881|
|         493|   -5.782720|   -3.319951|   -3.635616|   -5.055411|
|         494|   -5.781376|   -3.317809|   -3.642883|   -5.050032|
|         495|   -5.779950|   -3.315317|   -3.649153|   -5.044750|
|         496|   -5.778357|   -3.312488|   -3.654211|   -5.039574|
|         497|   -5.776421|   -3.309443|   -3.657801|   -5.034498|
|         498|   -5.774149|   -3.306323|   -3.659875|   -5.029526|
|         499|   -5.771578|   -3.303390|   -3.660841|   -5.024650|
|         500|   -5.768649|   -3.300902|   -3.661282|   -5.019865|
|         501|   -5.765398|   -3.298846|   -3.661869|   -5.015193|
|         502|   -5.761984|   -3.297078|   -3.663627|   -5.010633|
|         503|   -5.758121|   -3.295568|   -3.666792|   -5.006173|
|         504|   -5.753649|   -3.294239|   -3.670671|   -5.001793|
|         505|   -5.748580|   -3.292908|   -3.674968|   -4.997477|
|         506|   -5.743054|   -3.291473|   -3.679045|   -4.993246|
|         507|   -5.737252|   -3.289806|   -3.682084|   -4.989146|
|         508|   -5.731218|   -3.287962|   -3.683831|   -4.985149|
|         509|   -5.725077|   -3.285953|   -3.683815|   -4.981264|
|         510|   -5.719003|   -3.283658|   -3.680818|   -4.977519|
|         511|   -5.712741|   -3.281127|   -3.674583|   -4.973921|
|         512|   -5.706168|   -3.278496|   -3.665790|   -4.970479|
|         513|   -5.699378|   -3.275968|   -3.655555|   -4.967223|
|         514|   -5.692273|   -3.273738|   -3.644836|   -4.964141|
|         515|   -5.684933|   -3.271893|   -3.634496|   -4.961240|
|         516|   -5.677711|   -3.270305|   -3.624281|   -4.958576|
|         517|   -5.671754|   -3.268913|   -3.614369|   -4.956135|
|         518|   -5.666195|   -3.267977|   -3.604679|   -4.953889|
|         519|   -5.660468|   -3.267249|   -3.595352|   -4.951816|
|         520|   -5.654445|   -3.266539|   -3.586427|   -4.949907|
|         521|   -5.648354|   -3.265850|   -3.576915|   -4.948153|
|         522|   -5.643022|   -3.265040|   -3.568484|   -4.946510|
|         523|   -5.637369|   -3.264285|   -3.560683|   -4.945031|
|         524|   -5.630875|   -3.263498|   -3.552834|   -4.943692|
|         525|   -5.624511|   -3.262525|   -3.544990|   -4.942453|
|         526|   -5.618986|   -3.261521|   -3.537326|   -4.941302|
|         527|   -5.613260|   -3.260523|   -3.529444|   -4.940252|
|         528|   -5.607513|   -3.259595|   -3.522180|   -4.939330|
|         529|   -5.602435|   -3.259106|   -3.515470|   -4.938550|
|         530|   -5.598465|   -3.259441|   -3.510759|   -4.937917|
|         531|   -5.596063|   -3.260156|   -3.507945|   -4.937448|
|         532|   -5.594533|   -3.261197|   -3.505542|   -4.937178|
|         533|   -5.592861|   -3.263103|   -3.504740|   -4.937097|
|         534|   -5.591377|   -3.265474|   -3.504703|   -4.937148|
|         535|   -5.590344|   -3.267669|   -3.503004|   -4.937265|
|         536|   -5.589205|   -3.269466|   -3.498937|   -4.937393|
|         537|   -5.587551|   -3.271146|   -3.493318|   -4.937548|
|         538|   -5.585573|   -3.272574|   -3.486178|   -4.937714|
|         539|   -5.583892|   -3.273690|   -3.478449|   -4.937901|
|         540|   -5.581857|   -3.274648|   -3.470571|   -4.938086|
|         541|   -5.579664|   -3.275306|   -3.463273|   -4.938397|
|         542|   -5.577305|   -3.275730|   -3.456874|   -4.938780|
|         543|   -5.575107|   -3.276022|   -3.451360|   -4.939297|
|         544|   -5.573114|   -3.276199|   -3.446569|   -4.939817|
|         545|   -5.571396|   -3.276272|   -3.442203|   -4.940383|
|         546|   -5.569860|   -3.276154|   -3.436753|   -4.940994|
|         547|   -5.569220|   -3.275730|   -3.430253|   -4.941747|
|         548|   -5.569193|   -3.275335|   -3.424248|   -4.942410|
|         549|   -5.568668|   -3.275053|   -3.418705|   -4.942907|
|         550|   -5.568100|   -3.274304|   -3.410788|   -4.943202|
|         551|   -5.568144|   -3.272965|   -3.402193|   -4.943258|
|         552|   -5.568425|   -3.271289|   -3.393480|   -4.943395|
|         553|   -5.568589|   -3.269437|   -3.385215|   -4.943701|
|         554|   -5.569104|   -3.267617|   -3.377653|   -4.944137|
|         555|   -5.569604|   -3.265759|   -3.369931|   -4.944707|
|         556|   -5.570484|   -3.263998|   -3.363013|   -4.944915|
|         557|   -5.571658|   -3.262084|   -3.357277|   -4.945529|
|         558|   -5.572301|   -3.259653|   -3.352850|   -4.945990|
|         559|   -5.572417|   -3.256599|   -3.347962|   -4.946220|
|         560|   -5.572555|   -3.253470|   -3.343407|   -4.946176|
|         561|   -5.572809|   -3.251080|   -3.337637|   -4.945831|
|         562|   -5.573202|   -3.249801|   -3.332635|   -4.945259|
|         563|   -5.573371|   -3.249357|   -3.329458|   -4.944531|
|         564|   -5.573438|   -3.249348|   -3.326503|   -4.943859|
|         565|   -5.573852|   -3.249573|   -3.324565|   -4.943250|
|         566|   -5.573949|   -3.250240|   -3.324199|   -4.942746|
|         567|   -5.573488|   -3.251469|   -3.325812|   -4.942485|
|         568|   -5.572829|   -3.253567|   -3.328805|   -4.942487|
|         569|   -5.571614|   -3.257163|   -3.332273|   -4.942825|
|         570|   -5.570308|   -3.261977|   -3.335107|   -4.943495|
|         571|   -5.569580|   -3.266994|   -3.337243|   -4.944301|
|         572|   -5.569647|   -3.271401|   -3.338976|   -4.945071|
|         573|   -5.570333|   -3.274778|   -3.341209|   -4.945352|
|         574|   -5.571867|   -3.277138|   -3.342689|   -4.944996|
|         575|   -5.573669|   -3.278391|   -3.344476|   -4.944291|
|         576|   -5.575284|   -3.278620|   -3.347037|   -4.943415|
|         577|   -5.577458|   -3.277999|   -3.350592|   -4.943180|
|         578|   -5.578969|   -3.276879|   -3.354987|   -4.943296|
|         579|   -5.580913|   -3.275975|   -3.360546|   -4.943499|
|         580|   -5.582188|   -3.275877|   -3.366974|   -4.943716|
|         581|   -5.583812|   -3.275879|   -3.368055|   -4.944179|
|         582|   -5.586024|   -3.275445|   -3.368420|   -4.944696|
|         583|   -5.588403|   -3.275634|   -3.368695|   -4.945289|
|         584|   -5.590827|   -3.276519|   -3.368348|   -4.945887|
|         585|   -5.593239|   -3.277745|   -3.367219|   -4.946639|
|         586|   -5.595532|   -3.279604|   -3.365568|   -4.947327|
|         587|   -5.598006|   -3.282166|   -3.363403|   -4.947847|
|         588|   -5.600513|   -3.285158|   -3.360995|   -4.948241|
|         589|   -5.603028|   -3.288364|   -3.358479|   -4.948544|
|         590|   -5.605486|   -3.291655|   -3.355681|   -4.948801|
|         591|   -5.607750|   -3.294843|   -3.353091|   -4.949072|
|         592|   -5.609923|   -3.297856|   -3.350432|   -4.949403|
|         593|   -5.611975|   -3.300557|   -3.347822|   -4.949814|
|         594|   -5.613877|   -3.302856|   -3.345281|   -4.950332|
|         595|   -5.615422|   -3.304541|   -3.342677|   -4.950980|
|         596|   -5.616799|   -3.305463|   -3.340054|   -4.951743|
|         597|   -5.617949|   -3.305570|   -3.337400|   -4.952543|
|         598|   -5.619102|   -3.304977|   -3.334793|   -4.953413|
|         599|   -5.620451|   -3.303816|   -3.332388|   -4.954304|
|         600|   -5.621396|   -3.302221|   -3.329995|   -4.955192|
|         601|   -5.622892|   -3.300523|   -3.327627|   -4.956116|
|         602|   -5.624449|   -3.299025|   -3.325357|   -4.957028|
|         603|   -5.625749|   -3.297843|   -3.323223|   -4.957934|
|         604|   -5.627124|   -3.297141|   -3.321276|   -4.958867|
|         605|   -5.628807|   -3.296959|   -3.319817|   -4.959807|
|         606|   -5.630528|   -3.297058|   -3.318926|   -4.960722|
|         607|   -5.632194|   -3.297285|   -3.318473|   -4.961595|
|         608|   -5.633703|   -3.297592|   -3.318291|   -4.962433|
|         609|   -5.635168|   -3.298009|   -3.318119|   -4.963251|
|         610|   -5.636612|   -3.298441|   -3.318035|   -4.964066|
|         611|   -5.637905|   -3.298765|   -3.318093|   -4.964900|
|         612|   -5.639165|   -3.298870|   -3.318103|   -4.965809|
|         613|   -5.640137|   -3.298769|   -3.318057|   -4.966815|
|         614|   -5.641246|   -3.298393|   -3.317858|   -4.967924|
|         615|   -5.642282|   -3.297638|   -3.317556|   -4.969186|
|         616|   -5.643356|   -3.296712|   -3.317216|   -4.970531|
|         617|   -5.644432|   -3.295300|   -3.316634|   -4.972021|
|         618|   -5.645441|   -3.293617|   -3.316031|   -4.973574|
|         619|   -5.646470|   -3.290942|   -3.315325|   -4.974944|
|         620|   -5.649303|   -3.288390|   -3.314727|   -4.975707|
|         621|   -5.651033|   -3.288543|   -3.314163|   -4.976503|
|         622|   -5.652428|   -3.288541|   -3.313647|   -4.977495|
|         623|   -5.653700|   -3.287170|   -3.313480|   -4.978620|
|         624|   -5.654820|   -3.285283|   -3.313372|   -4.979942|
|         625|   -5.656327|   -3.283299|   -3.313588|   -4.981457|
|         626|   -5.657880|   -3.281276|   -3.314214|   -4.983100|
|         627|   -5.659687|   -3.279106|   -3.315116|   -4.984754|
|         628|   -5.660573|   -3.276222|   -3.316245|   -4.986072|
|         629|   -5.663586|   -3.273500|   -3.317620|   -4.987593|
|         630|   -5.667183|   -3.273215|   -3.319009|   -4.990465|
|         631|   -5.668759|   -3.274162|   -3.320140|   -4.995764|
|         632|   -5.668374|   -3.273242|   -3.321218|   -5.004211|
|         633|   -5.666932|   -3.269237|   -3.322481|   -5.016287|
|         634|   -5.665519|   -3.262502|   -3.323950|   -5.032205|
|         635|   -5.664647|   -3.253710|   -3.325690|   -5.051909|
|         636|   -5.664442|   -3.243781|   -3.327718|   -5.075322|
|         637|   -5.665848|   -3.233444|   -3.329993|   -5.101974|
|         638|   -5.668861|   -3.223785|   -3.332617|   -5.130895|
|         639|   -5.673641|   -3.216038|   -3.335526|   -5.160890|
|         640|   -5.679964|   -3.211147|   -3.338812|   -5.190538|
|         641|   -5.687718|   -3.209503|   -3.342580|   -5.218406|
|         642|   -5.696545|   -3.210708|   -3.346706|   -5.243658|
|         643|   -5.705853|   -3.214161|   -3.351347|   -5.265754|
|         644|   -5.715439|   -3.218970|   -3.356296|   -5.284513|
|         645|   -5.724889|   -3.224272|   -3.361759|   -5.300296|
|         646|   -5.734147|   -3.229256|   -3.367500|   -5.313302|
|         647|   -5.743193|   -3.233399|   -3.373700|   -5.324303|
|         648|   -5.751937|   -3.236433|   -3.380298|   -5.334012|
|         649|   -5.760633|   -3.238373|   -3.387353|   -5.342359|
|         650|   -5.769120|   -3.239332|   -3.394869|   -5.350114|
|         651|   -5.777712|   -3.239519|   -3.402823|   -5.356444|
|         652|   -5.786249|   -3.239085|   -3.411242|   -5.362619|
|         653|   -5.794907|   -3.238198|   -3.420028|   -5.368591|
|         654|   -5.803731|   -3.237002|   -3.429217|   -5.373822|
|         655|   -5.812626|   -3.235589|   -3.438780|   -5.378758|
|         656|   -5.821711|   -3.234043|   -3.448728|   -5.382552|
|         657|   -5.830907|   -3.232417|   -3.459034|   -5.386411|
|         658|   -5.840211|   -3.230738|   -3.469696|   -5.390984|
|         659|   -5.849655|   -3.229028|   -3.480698|   -5.394681|
|         660|   -5.859276|   -3.227310|   -3.491971|   -5.397908|
|         661|   -5.869032|   -3.225597|   -3.503548|   -5.401032|
|         662|   -5.878831|   -3.223916|   -3.515458|   -5.403234|
|         663|   -5.888847|   -3.222268|   -3.527593|   -5.406658|
|         664|   -5.899028|   -3.220657|   -3.539974|   -5.409392|
|         665|   -5.909215|   -3.219111|   -3.552705|   -5.412501|
|         666|   -5.919690|   -3.217618|   -3.565628|   -5.414995|
|         667|   -5.930249|   -3.216182|   -3.578875|   -5.418669|
|         668|   -5.940910|   -3.214816|   -3.592505|   -5.422044|
|         669|   -5.951839|   -3.213504|   -3.606356|   -5.423870|
|         670|   -5.962753|   -3.212262|   -3.620750|   -5.424806|
|         671|   -5.973904|   -3.211100|   -3.635462|   -5.428003|
|         672|   -5.985029|   -3.210007|   -3.650635|   -5.430164|
|         673|   -5.996381|   -3.208996|   -3.666292|   -5.431201|
|         674|   -6.007638|   -3.208061|   -3.682323|   -5.436426|
|         675|   -6.018979|   -3.207212|   -3.698900|   -5.441279|
|         676|   -6.030232|   -3.206444|   -3.715843|   -5.444960|
|         677|   -6.041404|   -3.205756|   -3.733384|   -5.447579|
|         678|   -6.052393|   -3.205146|   -3.751303|   -5.449329|
|         679|   -6.063144|   -3.204615|   -3.769718|   -5.451201|
|         680|   -6.073615|   -3.204160|   -3.788358|   -5.453775|
|         681|   -6.083707|   -3.203782|   -3.807273|   -5.456076|
|         682|   -6.093308|   -3.203477|   -3.826102|   -5.457760|
|         683|   -6.102398|   -3.203249|   -3.844860|   -5.458896|
|         684|   -6.110721|   -3.203101|   -3.863096|   -5.459599|
|         685|   -6.118332|   -3.203038|   -3.880752|   -5.460229|
|         686|   -6.124969|   -3.203057|   -3.897386|   -5.461926|
|         687|   -6.130635|   -3.203158|   -3.912749|   -5.464627|
|         688|   -6.135133|   -3.203336|   -3.926393|   -5.467242|
|         689|   -6.138466|   -3.203586|   -3.937978|   -5.470558|
|         690|   -6.140560|   -3.203908|   -3.946980|   -5.474661|
|         691|   -6.141389|   -3.204297|   -3.953116|   -5.478358|
|         692|   -6.140836|   -3.204759|   -3.956267|   -5.481703|
|         693|   -6.138961|   -3.205295|   -3.956287|   -5.484722|
|         694|   -6.135885|   -3.205900|   -3.953205|   -5.487423|
|         695|   -6.131574|   -3.206580|   -3.947236|   -5.489850|
|         696|   -6.126028|   -3.207341|   -3.938889|   -5.492002|
|         697|   -6.119508|   -3.208186|   -3.928286|   -5.493930|
|         698|   -6.111993|   -3.209117|   -3.915830|   -5.495829|
|         699|   -6.103604|   -3.210139|   -3.902167|   -5.498563|
|         700|   -6.094453|   -3.211260|   -3.887505|   -5.501038|
|         701|   -6.084661|   -3.212478|   -3.872023|   -5.503296|
|         702|   -6.074211|   -3.213796|   -3.856222|   -5.505359|
|         703|   -6.063267|   -3.215222|   -3.840218|   -5.507204|
|         704|   -6.051941|   -3.216748|   -3.824078|   -5.508870|
|         705|   -6.040101|   -3.218376|   -3.808097|   -5.510358|
|         706|   -6.028020|   -3.220106|   -3.792246|   -5.511649|
|         707|   -6.015685|   -3.221930|   -3.776562|   -5.512802|
|         708|   -6.003105|   -3.223849|   -3.761273|   -5.513777|
|         709|   -5.990435|   -3.225856|   -3.746259|   -5.514594|
|         710|   -5.977623|   -3.227944|   -3.731674|   -5.515257|
|         711|   -5.964805|   -3.230109|   -3.717517|   -5.515749|
|         712|   -5.951998|   -3.232344|   -3.703810|   -5.516084|
|         713|   -5.939221|   -3.234644|   -3.690598|   -5.516243|
|         714|   -5.926550|   -3.237007|   -3.677867|   -5.516230|
|         715|   -5.913978|   -3.239428|   -3.665660|   -5.516041|
|         716|   -5.901562|   -3.241904|   -3.653984|   -5.515668|
|         717|   -5.889315|   -3.244435|   -3.642840|   -5.515123|
|         718|   -5.877248|   -3.247017|   -3.632247|   -5.514432|
|         719|   -5.865384|   -3.249651|   -3.622204|   -5.513601|
|         720|   -5.853723|   -3.252335|   -3.612720|   -5.512718|
|         721|   -5.842285|   -3.255065|   -3.603786|   -5.511851|
|         722|   -5.831070|   -3.257839|   -3.595407|   -5.510880|
|         723|   -5.820082|   -3.260655|   -3.587560|   -5.509847|
|         724|   -5.809361|   -3.263504|   -3.580008|   -5.508699|
|         725|   -5.798940|   -3.266383|   -3.572533|   -5.507463|
|         726|   -5.788729|   -3.269305|   -3.565620|   -5.506180|
|         727|   -5.778744|   -3.272264|   -3.559162|   -5.504837|
|         728|   -5.768989|   -3.275252|   -3.553168|   -5.503431|
|         729|   -5.759452|   -3.278259|   -3.547609|   -5.501937|
|         730|   -5.750115|   -3.281279|   -3.542466|   -5.500374|
|         731|   -5.740955|   -3.284310|   -3.537731|   -5.498750|
|         732|   -5.731965|   -3.287351|   -3.533391|   -5.497061|
|         733|   -5.723142|   -3.290404|   -3.529439|   -5.495271|
|         734|   -5.714462|   -3.293471|   -3.525863|   -5.493419|
|         735|   -5.705939|   -3.296560|   -3.522676|   -5.491617|
|         736|   -5.697576|   -3.299682|   -3.519909|   -5.489725|
|         737|   -5.689343|   -3.302836|   -3.517541|   -5.487751|
|         738|   -5.681208|   -3.306016|   -3.515539|   -5.485714|
|         739|   -5.673161|   -3.309222|   -3.513905|   -5.483621|
|         740|   -5.665191|   -3.312460|   -3.512657|   -5.481462|
|         741|   -5.657306|   -3.315735|   -3.511786|   -5.479253|
|         742|   -5.649509|   -3.319053|   -3.511317|   -5.477031|
|         743|   -5.641788|   -3.322419|   -3.511265|   -5.474787|
|         744|   -5.634154|   -3.325840|   -3.511618|   -5.472533|
|         745|   -5.626601|   -3.329318|   -3.512394|   -5.470308|
|         746|   -5.619125|   -3.332854|   -3.513604|   -5.468099|
|         747|   -5.611726|   -3.336450|   -3.515247|   -5.466106|
|         748|   -5.604393|   -3.340100|   -3.517342|   -5.464191|
|         749|   -5.597123|   -3.343805|   -3.519902|   -5.462321|
|         750|   -5.589908|   -3.347556|   -3.522938|   -5.460634|
|         751|   -5.582746|   -3.351349|   -3.526465|   -5.459007|
|         752|   -5.575629|   -3.355174|   -3.530493|   -5.457434|
|         753|   -5.568570|   -3.359022|   -3.534837|   -5.455918|
|         754|   -5.561563|   -3.362890|   -3.539764|   -5.454457|
|         755|   -5.554617|   -3.366774|   -3.545299|   -5.453048|
|         756|   -5.547746|   -3.370665|   -3.551484|   -5.451686|
|         757|   -5.540932|   -3.374552|   -3.558326|   -5.450362|
|         758|   -5.534175|   -3.378422|   -3.565849|   -5.449059|
|         759|   -5.527504|   -3.382259|   -3.574118|   -5.447828|
|         760|   -5.520930|   -3.386045|   -3.583187|   -5.446876|
|         761|   -5.514452|   -3.389763|   -3.593114|   -5.446272|
|         762|   -5.508146|   -3.393394|   -3.602952|   -5.445678|
|         763|   -5.501844|   -3.396923|   -3.613403|   -5.444972|
|         764|   -5.496428|   -3.400323|   -3.612467|   -5.444257|
|         765|   -5.490559|   -3.403599|   -3.600618|   -5.444174|
|         766|   -5.484595|   -3.407072|   -3.589642|   -5.444770|
|         767|   -5.480698|   -3.411058|   -3.580313|   -5.445736|
|         768|   -5.478256|   -3.415621|   -3.571955|   -5.446682|
|         769|   -5.476570|   -3.420736|   -3.564160|   -5.447620|
|         770|   -5.475182|   -3.426313|   -3.556622|   -5.448368|
|         771|   -5.473764|   -3.432201|   -3.549140|   -5.448686|
|         772|   -5.472145|   -3.438233|   -3.541707|   -5.448586|
|         773|   -5.470269|   -3.444251|   -3.534435|   -5.448162|
|         774|   -5.468103|   -3.450123|   -3.527408|   -5.448866|
|         775|   -5.465630|   -3.455792|   -3.520639|   -5.449534|
|         776|   -5.462844|   -3.461272|   -3.514079|   -5.450766|
|         777|   -5.459736|   -3.466631|   -3.507603|   -5.451805|
|         778|   -5.456326|   -3.472013|   -3.501113|   -5.451959|
|         779|   -5.452715|   -3.477609|   -3.494535|   -5.451762|
|         780|   -5.448993|   -3.483552|   -3.487829|   -5.452135|
|         781|   -5.445299|   -3.489889|   -3.481051|   -5.451954|
|         782|   -5.441852|   -3.496682|   -3.474170|   -5.451968|
|         783|   -5.438815|   -3.503965|   -3.467274|   -5.451911|
|         784|   -5.436288|   -3.511657|   -3.460538|   -5.452252|
|         785|   -5.434331|   -3.519610|   -3.454054|   -5.452582|
|         786|   -5.432954|   -3.527759|   -3.447862|   -5.452424|
|         787|   -5.432067|   -3.536133|   -3.442016|   -5.452119|
|         788|   -5.431548|   -3.544608|   -3.436528|   -5.452105|
|         789|   -5.431284|   -3.553050|   -3.431449|   -5.452271|
|         790|   -5.431154|   -3.561378|   -3.426830|   -5.452226|
|         791|   -5.431050|   -3.569492|   -3.422645|   -5.451705|
|         792|   -5.430892|   -3.577321|   -3.418820|   -5.451196|
|         793|   -5.430630|   -3.584881|   -3.415294|   -5.450568|
|         794|   -5.430493|   -3.592343|   -3.412143|   -5.449622|
|         795|   -5.430265|   -3.599800|   -3.409531|   -5.448364|
|         796|   -5.429928|   -3.607960|   -3.399615|   -5.447207|
|         797|   -5.428901|   -3.615942|   -3.373473|   -5.446232|
|         798|   -5.426877|   -3.623456|   -3.352058|   -5.445657|
|         799|   -5.425563|   -3.630878|   -3.332535|   -5.445148|
|         800|   -5.425530|   -3.638169|   -3.315382|   -5.444573|
|         801|   -5.425758|   -3.644900|   -3.299383|   -5.444284|
|         802|   -5.426366|   -3.650970|   -3.284702|   -5.444127|
|         803|   -5.427173|   -3.656295|   -3.270979|   -5.444077|
|         804|   -5.428291|   -3.660496|   -3.258242|   -5.444053|
|         805|   -5.429591|   -3.663143|   -3.246415|   -5.444013|
|         806|   -5.430948|   -3.664050|   -3.235340|   -5.443920|
|         807|   -5.432260|   -3.663254|   -3.224907|   -5.443714|
|         808|   -5.433475|   -3.660757|   -3.215029|   -5.443382|
|         809|   -5.434585|   -3.656609|   -3.205665|   -5.442906|
|         810|   -5.435623|   -3.650959|   -3.196818|   -5.442211|
|         811|   -5.436651|   -3.643997|   -3.188529|   -5.441341|
|         812|   -5.437733|   -3.635917|   -3.180853|   -5.440244|
|         813|   -5.438914|   -3.626838|   -3.173834|   -5.438976|
|         814|   -5.440222|   -3.616878|   -3.167445|   -5.437483|
|         815|   -5.441686|   -3.606103|   -3.161697|   -5.435774|
|         816|   -5.443275|   -3.594587|   -3.156547|   -5.433891|
|         817|   -5.444888|   -3.582406|   -3.151983|   -5.431846|
|         818|   -5.446650|   -3.569472|   -3.148046|   -5.429592|
|         819|   -5.448578|   -3.555867|   -3.144638|   -5.427144|
|         820|   -5.450646|   -3.541731|   -3.141732|   -5.424591|
|         821|   -5.452853|   -3.527166|   -3.139317|   -5.421904|
|         822|   -5.455187|   -3.512289|   -3.137374|   -5.419155|
|         823|   -5.457666|   -3.497200|   -3.135876|   -5.416289|
|         824|   -5.460304|   -3.482015|   -3.134803|   -5.413273|
|         825|   -5.463081|   -3.466814|   -3.134148|   -5.410237|
|         826|   -5.466023|   -3.451651|   -3.133895|   -5.407123|
|         827|   -5.469103|   -3.436610|   -3.134029|   -5.403962|
|         828|   -5.472367|   -3.421753|   -3.134533|   -5.400611|
|         829|   -5.475777|   -3.407127|   -3.135390|   -5.397165|
|         830|   -5.479350|   -3.392777|   -3.136582|   -5.393681|
|         831|   -5.483071|   -3.378721|   -3.138092|   -5.390133|
|         832|   -5.486942|   -3.364988|   -3.139907|   -5.386573|
|         833|   -5.490952|   -3.351595|   -3.142012|   -5.382913|
|         834|   -5.495070|   -3.338546|   -3.144394|   -5.379275|
|         835|   -5.499356|   -3.325809|   -3.147045|   -5.375569|
|         836|   -5.503769|   -3.313389|   -3.149958|   -5.371882|
|         837|   -5.508315|   -3.301260|   -3.153126|   -5.368301|
|         838|   -5.512952|   -3.289407|   -3.156542|   -5.364849|
|         839|   -5.517717|   -3.277824|   -3.160200|   -5.361536|
|         840|   -5.522598|   -3.266496|   -3.164093|   -5.358338|
|         841|   -5.527560|   -3.255395|   -3.168220|   -5.355309|
|         842|   -5.532657|   -3.244509|   -3.172574|   -5.352370|
|         843|   -5.537846|   -3.233838|   -3.177148|   -5.349617|
|         844|   -5.543152|   -3.223368|   -3.181941|   -5.347026|
|         845|   -5.548559|   -3.213109|   -3.186948|   -5.344595|
|         846|   -5.554055|   -3.203076|   -3.192174|   -5.342256|
|         847|   -5.559647|   -3.193263|   -3.197629|   -5.340028|
|         848|   -5.565362|   -3.183712|   -3.203314|   -5.337801|
|         849|   -5.571199|   -3.174416|   -3.209250|   -5.335593|
|         850|   -5.577130|   -3.165412|   -3.215427|   -5.333491|
|         851|   -5.583213|   -3.156746|   -3.221866|   -5.331463|
|         852|   -5.589417|   -3.148401|   -3.228611|   -5.329525|
|         853|   -5.595760|   -3.140375|   -3.235683|   -5.327643|
|         854|   -5.602230|   -3.132687|   -3.243098|   -5.325800|
|         855|   -5.608857|   -3.125324|   -3.250883|   -5.323945|
|         856|   -5.615645|   -3.118294|   -3.259041|   -5.322027|
|         857|   -5.622585|   -3.111566|   -3.267585|   -5.320044|
|         858|   -5.629685|   -3.105126|   -3.276495|   -5.317995|
|         859|   -5.636919|   -3.098977|   -3.285783|   -5.315884|
|         860|   -5.644328|   -3.093101|   -3.295498|   -5.313682|
|         861|   -5.651880|   -3.087500|   -3.305650|   -5.311392|
|         862|   -5.659560|   -3.082146|   -3.316291|   -5.309018|
|         863|   -5.667374|   -3.077090|   -3.327344|   -5.306543|
|         864|   -5.675314|   -3.072290|   -3.338833|   -5.303959|
|         865|   -5.683687|   -3.067709|   -3.349229|   -5.301282|
|         866|   -5.692218|   -3.063349|   -3.360106|   -5.298531|
|         867|   -5.700764|   -3.059208|   -3.371292|   -5.295704|
|         868|   -5.709475|   -3.055278|   -3.383028|   -5.292799|
|         869|   -5.718222|   -3.051557|   -3.395172|   -5.289821|
|         870|   -5.727005|   -3.048063|   -3.407739|   -5.286778|
|         871|   -5.735768|   -3.044767|   -3.420705|   -5.283685|
|         872|   -5.744485|   -3.041695|   -3.434026|   -5.280553|
|         873|   -5.753097|   -3.038789|   -3.447580|   -5.277385|
|         874|   -5.761567|   -3.036082|   -3.461214|   -5.274188|
|         875|   -5.769856|   -3.033562|   -3.474926|   -5.270970|
|         876|   -5.777914|   -3.031215|   -3.488542|   -5.267745|
|         877|   -5.785681|   -3.029034|   -3.501976|   -5.264519|
|         878|   -5.793096|   -3.027009|   -3.515083|   -5.261292|
|         879|   -5.800074|   -3.025142|   -3.527780|   -5.258073|
|         880|   -5.806525|   -3.023427|   -3.539936|   -5.254864|
|         881|   -5.812367|   -3.021865|   -3.551298|   -5.251680|
|         882|   -5.817529|   -3.020460|   -3.561797|   -5.248495|
|         883|   -5.821984|   -3.019211|   -3.571145|   -5.245324|
|         884|   -5.825707|   -3.018089|   -3.579248|   -5.242148|
|         885|   -5.828616|   -3.017117|   -3.586004|   -5.238975|
|         886|   -5.830699|   -3.016269|   -3.591313|   -5.235815|
|         887|   -5.831892|   -3.015554|   -3.595054|   -5.232686|
|         888|   -5.832127|   -3.014958|   -3.597284|   -5.229585|
|         889|   -5.831371|   -3.014483|   -3.597959|   -5.226504|
|         890|   -5.829688|   -3.014121|   -3.597135|   -5.223443|
|         891|   -5.827122|   -3.013881|   -3.594868|   -5.220392|
|         892|   -5.823679|   -3.013756|   -3.591314|   -5.217363|
|         893|   -5.819312|   -3.013750|   -3.586493|   -5.214373|
|         894|   -5.814072|   -3.013855|   -3.580462|   -5.211409|
|         895|   -5.807972|   -3.014062|   -3.573352|   -5.208480|
|         896|   -5.801118|   -3.014365|   -3.565299|   -5.205585|
|         897|   -5.793527|   -3.014762|   -3.556378|   -5.202704|
|         898|   -5.785154|   -3.015231|   -3.546431|   -5.199836|
|         899|   -5.776184|   -3.015768|   -3.535739|   -5.196979|
|         900|   -5.766774|   -3.016375|   -3.524595|   -5.194130|
|         901|   -5.757030|   -3.017041|   -3.513000|   -5.191296|
|         902|   -5.746854|   -3.017760|   -3.501035|   -5.188468|
|         903|   -5.736161|   -3.018646|   -3.488373|   -5.185652|
|         904|   -5.725627|   -3.019525|   -3.476349|   -5.182797|
|         905|   -5.715377|   -3.020364|   -3.465215|   -5.179915|
|         906|   -5.704800|   -3.021222|   -3.453986|   -5.177020|
|         907|   -5.693787|   -3.022101|   -3.442401|   -5.174117|
|         908|   -5.682388|   -3.022960|   -3.430780|   -5.171261|
|         909|   -5.670387|   -3.023782|   -3.419270|   -5.168363|
|         910|   -5.657661|   -3.024750|   -3.408743|   -5.165364|
|         911|   -5.645315|   -3.025720|   -3.397581|   -5.162328|
|         912|   -5.633895|   -3.026582|   -3.384887|   -5.159319|
|         913|   -5.622575|   -3.027327|   -3.371374|   -5.156433|
|         914|   -5.610684|   -3.028255|   -3.358592|   -5.153659|
|         915|   -5.599306|   -3.029191|   -3.344162|   -5.150981|
|         916|   -5.587662|   -3.030098|   -3.330911|   -5.148538|
|         917|   -5.576291|   -3.031053|   -3.318235|   -5.146245|
|         918|   -5.564980|   -3.031691|   -3.307298|   -5.144103|
|         919|   -5.552985|   -3.032117|   -3.299126|   -5.142062|
|         920|   -5.542203|   -3.032135|   -3.290360|   -5.140018|
|         921|   -5.532227|   -3.031798|   -3.282183|   -5.138046|
|         922|   -5.522533|   -3.031852|   -3.276379|   -5.136212|
|         923|   -5.513395|   -3.032939|   -3.274118|   -5.134534|
|         924|   -5.506213|   -3.035411|   -3.275774|   -5.132951|
|         925|   -5.501517|   -3.038393|   -3.279594|   -5.131509|
|         926|   -5.496734|   -3.042777|   -3.287153|   -5.130237|
|         927|   -5.492459|   -3.048007|   -3.294489|   -5.129200|
|         928|   -5.487292|   -3.052553|   -3.298111|   -5.128336|
|         929|   -5.481172|   -3.056443|   -3.296447|   -5.127597|
|         930|   -5.474581|   -3.060022|   -3.291826|   -5.127023|
|         931|   -5.467835|   -3.063550|   -3.285591|   -5.126557|
|         932|   -5.461018|   -3.066957|   -3.278776|   -5.126131|
|         933|   -5.454157|   -3.070164|   -3.272247|   -5.125672|
|         934|   -5.447349|   -3.073201|   -3.266075|   -5.125338|
|         935|   -5.440715|   -3.076194|   -3.260234|   -5.125126|
|         936|   -5.434420|   -3.079102|   -3.255729|   -5.124938|
|         937|   -5.428604|   -3.081849|   -3.251726|   -5.124777|
|         938|   -5.423348|   -3.084393|   -3.245191|   -5.124702|
|         939|   -5.418150|   -3.086858|   -3.239045|   -5.124873|
|         940|   -5.413096|   -3.089244|   -3.232725|   -5.125171|
|         941|   -5.408301|   -3.091406|   -3.225990|   -5.125626|
|         942|   -5.403643|   -3.093266|   -3.218692|   -5.126309|
|         943|   -5.399200|   -3.094828|   -3.210931|   -5.127083|
|         944|   -5.395002|   -3.096192|   -3.202750|   -5.127865|
|         945|   -5.390907|   -3.097325|   -3.194214|   -5.128736|
|         946|   -5.386898|   -3.098040|   -3.185717|   -5.129767|
|         947|   -5.383184|   -3.098237|   -3.177953|   -5.130917|
|         948|   -5.379879|   -3.098555|   -3.171189|   -5.132052|
|         949|   -5.376871|   -3.100049|   -3.165342|   -5.133077|
|         950|   -5.373810|   -3.102995|   -3.160562|   -5.133853|
|         951|   -5.370750|   -3.106782|   -3.157150|   -5.134252|
|         952|   -5.367687|   -3.110853|   -3.154427|   -5.134279|
|         953|   -5.364623|   -3.114947|   -3.151786|   -5.134146|
|         954|   -5.361547|   -3.118761|   -3.149546|   -5.134209|
|         955|   -5.358636|   -3.122705|   -3.147664|   -5.134722|
|         956|   -5.356055|   -3.127527|   -3.145113|   -5.135741|
|         957|   -5.353678|   -3.133611|   -3.142324|   -5.137040|
|         958|   -5.351553|   -3.140219|   -3.139401|   -5.138229|
|         959|   -5.349670|   -3.146368|   -3.136691|   -5.139238|
|         960|   -5.348001|   -3.151503|   -3.134376|   -5.139993|
|         961|   -5.346613|   -3.155234|   -3.132495|   -5.140670|
|         962|   -5.345445|   -3.157360|   -3.130889|   -5.141580|
|         963|   -5.344388|   -3.157895|   -3.129388|   -5.141465|
|         964|   -5.343668|   -3.157102|   -3.125429|   -5.141615|
|         965|   -5.342728|   -3.155438|   -3.116165|   -5.142675|
|         966|   -5.341945|   -3.153352|   -3.107286|   -5.143722|
|         967|   -5.341199|   -3.151295|   -3.098636|   -5.147014|
|         968|   -5.341092|   -3.150126|   -3.090471|   -5.150679|
|         969|   -5.341316|   -3.149725|   -3.082768|   -5.155039|
|         970|   -5.342115|   -3.150473|   -3.075612|   -5.159219|
|         971|   -5.343102|   -3.152214|   -3.068939|   -5.163948|
|         972|   -5.344301|   -3.155090|   -3.062733|   -5.168443|
|         973|   -5.345516|   -3.159253|   -3.056911|   -5.172829|
|         974|   -5.346760|   -3.164182|   -3.051341|   -5.176982|
|         975|   -5.348068|   -3.169372|   -3.046047|   -5.180939|
[...]
|        8991|   -3.542698|    0.606401|    0.648908|   -3.294306|
|        8992|   -3.548192|    0.613054|    0.647284|   -3.298974|
|        8993|   -3.553730|    0.619692|    0.645434|   -3.303764|
|        8994|   -3.559331|    0.626315|    0.643347|   -3.308658|
|        8995|   -3.565008|    0.632922|    0.641022|   -3.313640|
|        8996|   -3.570761|    0.639504|    0.638450|   -3.318697|
|        8997|   -3.576576|    0.646053|    0.635647|   -3.323865|
|        8998|   -3.582432|    0.652556|    0.632626|   -3.329176|
|        8999|   -3.588332|    0.659008|    0.629397|   -3.334624|
|        9000|   -3.594284|    0.665404|    0.625961|   -3.340225|
+-----------------------------------------------------------------------+
|        File Writing Summary       |              Filename             |
+-----------------------------------------------------------------------+
|SU2 restart                        |restart_venturi_mixturedensity_30kW_fine_test.dat|
|                                   |                     (63.6454 MB/s)|
|Paraview                           |flow_venturi_mixturedensity_30kW_fine_test_00009000.vtu|
|                                   |                     (3.34364 MB/s)|
|Paraview surface                   |surface_flow_venturi_mixturedensity_30kW_fine_test.vtu|
|                                   |                     (3.67701 MB/s)|
+-----------------------------------------------------------------------+
+----------------------------------------------------------------+
|  Inner_Iter|      rms[P]|      rms[U]|      rms[V]|      rms[c]|
+----------------------------------------------------------------+
|        9001|   -3.600284|    0.671735|    0.622321|   -3.345991|
|        9002|   -3.606340|    0.677994|    0.618477|   -3.351918|
|        9003|   -3.612462|    0.684180|    0.614429|   -3.357993|
|        9004|   -3.618660|    0.690288|    0.610173|   -3.364205|
|        9005|   -3.624939|    0.696313|    0.605708|   -3.370557|
|        9006|   -3.631303|    0.702251|    0.601036|   -3.377074|
|        9007|   -3.637755|    0.708099|    0.596154|   -3.383782|
|        9008|   -3.644302|    0.713850|    0.591053|   -3.390701|
|        9009|   -3.650958|    0.719502|    0.585720|   -3.397838|
|        9010|   -3.657733|    0.725052|    0.580146|   -3.405208|
|        9011|   -3.664627|    0.730495|    0.574325|   -3.412828|
|        9012|   -3.671641|    0.735831|    0.568259|   -3.420708|
|        9013|   -3.678779|    0.741055|    0.561946|   -3.428855|
|        9014|   -3.686050|    0.746166|    0.555375|   -3.437276|
|        9015|   -3.693467|    0.751162|    0.548525|   -3.445982|
|        9016|   -3.701045|    0.756040|    0.541370|   -3.454983|
|        9017|   -3.708797|    0.760798|    0.533880|   -3.464295|
|        9018|   -3.716734|    0.765433|    0.526030|   -3.473934|
|        9019|   -3.724867|    0.769944|    0.517794|   -3.483924|
|        9020|   -3.733192|    0.774328|    0.509160|   -3.494285|
|        9021|   -3.741715|    0.778582|    0.500110|   -3.505038|
|        9022|   -3.750438|    0.782705|    0.490628|   -3.516204|
|        9023|   -3.759363|    0.786692|    0.480694|   -3.527805|
|        9024|   -3.768491|    0.790542|    0.470297|   -3.539864|
|        9025|   -3.777822|    0.794252|    0.459425|   -3.552403|
|        9026|   -3.787355|    0.797817|    0.448064|   -3.565444|
|        9027|   -3.797092|    0.801235|    0.436204|   -3.579008|
|        9028|   -3.807032|    0.804501|    0.423835|   -3.593117|
|        9029|   -3.817175|    0.807614|    0.410946|   -3.607796|
|        9030|   -3.827521|    0.810571|    0.397519|   -3.623071|
|        9031|   -3.838066|    0.813372|    0.383519|   -3.638973|
|        9032|   -3.848805|    0.816016|    0.368927|   -3.655532|
|        9033|   -3.859720|    0.818503|    0.353737|   -3.672790|
|        9034|   -3.870805|    0.820833|    0.337924|   -3.690790|
|        9035|   -3.882048|    0.823009|    0.321464|   -3.709572|
|        9036|   -3.893438|    0.825030|    0.304337|   -3.729173|
|        9037|   -3.904958|    0.826901|    0.286524|   -3.749646|
|        9038|   -3.916609|    0.828623|    0.268049|   -3.771043|
|        9039|   -3.928392|    0.830202|    0.248948|   -3.793445|
|        9040|   -3.940235|    0.831640|    0.229043|   -3.816924|
|        9041|   -3.952110|    0.832941|    0.208303|   -3.841531|
|        9042|   -3.963961|    0.834110|    0.186719|   -3.867335|
|        9043|   -3.975729|    0.835151|    0.164274|   -3.894408|
|        9044|   -3.987344|    0.836069|    0.140958|   -3.922821|
|        9045|   -3.998724|    0.836866|    0.116783|   -3.952625|
|        9046|   -4.009773|    0.837545|    0.091804|   -3.983844|
|        9047|   -4.020386|    0.838109|    0.066143|   -4.016449|
|        9048|   -4.030444|    0.838560|    0.040011|   -4.050329|
|        9049|   -4.039822|    0.838901|    0.013696|   -4.085223|
|        9050|   -4.048386|    0.839135|   -0.012372|   -4.120646|
|        9051|   -4.055995|    0.839266|   -0.037630|   -4.155773|
|        9052|   -4.062500|    0.839297|   -0.061288|   -4.189305|
|        9053|   -4.067748|    0.839231|   -0.082308|   -4.219418|
|        9054|   -4.071585|    0.839069|   -0.099609|   -4.243843|
|        9055|   -4.073893|    0.838815|   -0.112025|   -4.260085|
|        9056|   -4.074573|    0.838470|   -0.118520|   -4.266179|
|        9057|   -4.073550|    0.838034|   -0.118547|   -4.261460|
|        9058|   -4.070794|    0.837512|   -0.112187|   -4.246835|
|        9059|   -4.066316|    0.836905|   -0.100012|   -4.224358|
|        9060|   -4.060208|    0.836216|   -0.082991|   -4.196503|
|        9061|   -4.052533|    0.835447|   -0.062333|   -4.165552|
|        9062|   -4.043428|    0.834604|   -0.039222|   -4.133328|
|        9063|   -4.033052|    0.833690|   -0.014698|   -4.100948|
|        9064|   -4.021587|    0.832706|    0.010376|   -4.069195|
|        9065|   -4.009265|    0.831651|    0.035576|   -4.038318|
|        9066|   -3.996170|    0.830537|    0.060416|   -4.008519|
|        9067|   -3.982416|    0.829374|    0.084575|   -3.980056|
|        9068|   -3.968135|    0.828171|    0.107855|   -3.952980|
|        9069|   -3.953455|    0.826933|    0.130152|   -3.927274|
|        9070|   -3.938504|    0.825665|    0.151394|   -3.902884|
|        9071|   -3.923393|    0.824372|    0.171548|   -3.879733|
|        9072|   -3.908211|    0.823061|    0.190630|   -3.857739|
|        9073|   -3.893041|    0.821738|    0.208587|   -3.836814|
|        9074|   -3.877937|    0.820410|    0.225487|   -3.816874|
|        9075|   -3.862957|    0.819085|    0.241367|   -3.797838|
|        9076|   -3.848128|    0.817767|    0.256269|   -3.779626|
|        9077|   -3.833502|    0.816468|    0.270231|   -3.762168|
|        9078|   -3.819087|    0.815194|    0.283306|   -3.745394|
|        9079|   -3.804927|    0.813958|    0.295517|   -3.729238|
|        9080|   -3.791016|    0.812765|    0.306879|   -3.713634|
|        9081|   -3.777388|    0.811625|    0.317398|   -3.698517|
|        9082|   -3.764047|    0.810546|    0.327092|   -3.683828|
|        9083|   -3.751002|    0.809538|    0.335989|   -3.669512|
|        9084|   -3.738239|    0.808613|    0.344129|   -3.655515|
|        9085|   -3.725738|    0.807779|    0.351541|   -3.641789|
|        9086|   -3.713506|    0.807047|    0.358255|   -3.628282|
|        9087|   -3.701520|    0.806429|    0.364297|   -3.614948|
|        9088|   -3.689778|    0.805940|    0.369688|   -3.601741|
|        9089|   -3.678247|    0.805589|    0.374444|   -3.588614|
|        9090|   -3.666933|    0.805390|    0.378601|   -3.575529|
|        9091|   -3.655797|    0.805355|    0.382193|   -3.562450|
|        9092|   -3.644825|    0.805492|    0.385223|   -3.549343|
|        9093|   -3.634039|    0.805817|    0.387696|   -3.536185|
|        9094|   -3.623391|    0.806341|    0.389611|   -3.522953|
|        9095|   -3.612878|    0.807069|    0.390998|   -3.509637|
|        9096|   -3.602462|    0.808011|    0.391888|   -3.496228|
|        9097|   -3.592117|    0.809173|    0.392327|   -3.482725|
|        9098|   -3.581753|    0.810565|    0.392451|   -3.469133|
|        9099|   -3.571397|    0.812191|    0.392210|   -3.455459|
|        9100|   -3.561014|    0.814063|    0.391656|   -3.441720|
|        9101|   -3.550593|    0.816190|    0.390810|   -3.427930|
|        9102|   -3.540075|    0.818576|    0.389701|   -3.414113|
|        9103|   -3.529484|    0.821216|    0.388357|   -3.400290|
|        9104|   -3.518815|    0.824123|    0.386821|   -3.386489|
|        9105|   -3.507971|    0.827298|    0.385168|   -3.372748|
|        9106|   -3.496931|    0.830723|    0.383499|   -3.359107|
|        9107|   -3.485726|    0.834397|    0.381904|   -3.345594|
|        9108|   -3.476282|    0.837997|    0.394556|   -3.332326|
|        9109|   -3.464152|    0.841734|    0.411870|   -3.319389|
|        9110|   -3.451966|    0.845635|    0.430545|   -3.306843|
|        9111|   -3.440899|    0.849621|    0.448712|   -3.294725|
|        9112|   -3.430933|    0.853620|    0.465798|   -3.283094|
|        9113|   -3.422096|    0.857563|    0.481483|   -3.271877|
|        9114|   -3.414252|    0.861390|    0.495875|   -3.261216|
|        9115|   -3.407045|    0.865078|    0.509278|   -3.251195|
|        9116|   -3.400275|    0.868577|    0.522025|   -3.241812|
|        9117|   -3.393686|    0.871882|    0.534485|   -3.233024|
|        9118|   -3.387058|    0.874989|    0.546872|   -3.224888|
|        9119|   -3.380341|    0.877886|    0.559201|   -3.217456|
|        9120|   -3.373669|    0.880565|    0.571411|   -3.210760|
|        9121|   -3.367141|    0.883021|    0.583407|   -3.204684|
|        9122|   -3.360764|    0.885265|    0.595032|   -3.199421|
|        9123|   -3.354552|    0.887339|    0.606005|   -3.195027|
|        9124|   -3.348754|    0.889200|    0.616375|   -3.191365|
|        9125|   -3.343374|    0.890850|    0.626159|   -3.188412|
|        9126|   -3.338428|    0.892270|    0.635310|   -3.186107|
|        9127|   -3.333885|    0.893455|    0.643835|   -3.184368|
|        9128|   -3.329639|    0.894432|    0.651759|   -3.183188|
|        9129|   -3.325560|    0.895241|    0.659120|   -3.182616|
|        9130|   -3.321790|    0.895826|    0.666012|   -3.182592|
|        9131|   -3.318357|    0.896114|    0.672523|   -3.183042|
|        9132|   -3.315052|    0.896136|    0.678671|   -3.184010|
|        9133|   -3.311736|    0.895932|    0.684428|   -3.185482|
|        9134|   -3.308532|    0.895468|    0.689876|   -3.187320|
|        9135|   -3.305443|    0.894809|    0.695088|   -3.189516|
|        9136|   -3.302485|    0.893963|    0.700134|   -3.192052|
|        9137|   -3.299702|    0.892932|    0.704952|   -3.194920|
|        9138|   -3.297143|    0.891735|    0.709503|   -3.198144|
|        9139|   -3.294769|    0.890364|    0.713714|   -3.201685|
|        9140|   -3.292583|    0.888838|    0.717545|   -3.205451|
|        9141|   -3.290605|    0.887210|    0.721001|   -3.209371|
|        9142|   -3.288812|    0.885519|    0.724293|   -3.213415|
|        9143|   -3.287168|    0.883774|    0.727384|   -3.217565|
|        9144|   -3.285716|    0.881965|    0.730233|   -3.221814|
|        9145|   -3.284464|    0.880077|    0.732812|   -3.226126|
|        9146|   -3.283417|    0.878127|    0.735117|   -3.230483|
|        9147|   -3.282573|    0.876101|    0.737201|   -3.234866|
|        9148|   -3.281917|    0.873998|    0.739067|   -3.239249|
|        9149|   -3.281469|    0.871805|    0.740649|   -3.243632|
|        9150|   -3.281252|    0.869536|    0.741927|   -3.248012|
|        9151|   -3.281256|    0.867198|    0.742909|   -3.252405|
|        9152|   -3.281470|    0.864789|    0.743611|   -3.256792|
|        9153|   -3.281892|    0.862344|    0.744091|   -3.261154|
|        9154|   -3.282515|    0.859863|    0.744386|   -3.265471|
|        9155|   -3.283341|    0.857357|    0.744461|   -3.269729|
|        9156|   -3.284386|    0.854830|    0.744314|   -3.273926|
|        9157|   -3.285652|    0.852262|    0.743941|   -3.278066|
|        9158|   -3.287133|    0.849658|    0.743349|   -3.282154|
|        9159|   -3.288814|    0.847032|    0.742540|   -3.286196|
|        9160|   -3.290682|    0.844390|    0.741542|   -3.290201|
|        9161|   -3.292720|    0.841739|    0.740379|   -3.294172|
|        9162|   -3.294922|    0.839099|    0.739035|   -3.298095|
|        9163|   -3.297293|    0.836433|    0.737502|   -3.301970|
|        9164|   -3.299827|    0.833762|    0.735747|   -3.305776|
|        9165|   -3.302629|    0.831071|    0.743444|   -3.309577|
|        9166|   -3.303488|    0.828566|    0.754647|   -3.313427|
|        9167|   -3.304972|    0.825873|    0.765497|   -3.317352|
|        9168|   -3.307785|    0.822872|    0.774855|   -3.321351|
|        9169|   -3.311591|    0.819525|    0.782442|   -3.325399|
|        9170|   -3.316112|    0.815951|    0.788324|   -3.329448|
|        9171|   -3.320842|    0.812225|    0.793048|   -3.333452|
|        9172|   -3.325411|    0.808538|    0.797312|   -3.337365|
|        9173|   -3.329597|    0.804941|    0.801407|   -3.341174|
|        9174|   -3.333461|    0.801535|    0.805412|   -3.344872|
|        9175|   -3.337139|    0.798318|    0.809103|   -3.348461|
|        9176|   -3.340854|    0.795302|    0.812314|   -3.351950|
|        9177|   -3.344724|    0.792446|    0.814827|   -3.355347|
|        9178|   -3.348849|    0.789768|    0.816563|   -3.358663|
|        9179|   -3.353224|    0.787234|    0.817507|   -3.361893|
|        9180|   -3.357831|    0.784847|    0.817762|   -3.365044|
|        9181|   -3.362605|    0.782599|    0.817401|   -3.368108|
|        9182|   -3.367503|    0.780497|    0.816532|   -3.371084|
|        9183|   -3.372474|    0.778529|    0.815207|   -3.373971|
|        9184|   -3.377505|    0.776710|    0.813481|   -3.376775|
|        9185|   -3.382580|    0.775032|    0.811369|   -3.379502|
|        9186|   -3.387707|    0.773504|    0.808886|   -3.382156|
|        9187|   -3.392886|    0.772130|    0.806041|   -3.384745|
|        9188|   -3.398126|    0.770916|    0.802845|   -3.387277|
|        9189|   -3.403426|    0.769850|    0.799309|   -3.389756|
|        9190|   -3.408784|    0.768944|    0.795467|   -3.392187|
|        9191|   -3.414192|    0.768185|    0.791353|   -3.394582|
|        9192|   -3.419646|    0.767558|    0.786991|   -3.396950|
|        9193|   -3.425133|    0.767057|    0.782422|   -3.399293|
|        9194|   -3.430641|    0.766683|    0.777664|   -3.401614|
|        9195|   -3.436154|    0.766444|    0.772759|   -3.403919|
|        9196|   -3.441659|    0.766347|    0.767745|   -3.406209|
|        9197|   -3.447148|    0.766416|    0.762662|   -3.408486|
|        9198|   -3.452617|    0.766665|    0.757533|   -3.410750|
|        9199|   -3.458071|    0.767119|    0.752393|   -3.413004|
|        9200|   -3.463529|    0.767796|    0.747241|   -3.415248|
|        9201|   -3.468988|    0.768712|    0.742095|   -3.417478|
|        9202|   -3.474447|    0.769870|    0.736963|   -3.419684|
|        9203|   -3.479911|    0.771290|    0.731855|   -3.421855|
|        9204|   -3.485381|    0.772981|    0.726773|   -3.423973|
|        9205|   -3.490866|    0.774961|    0.721731|   -3.426023|
|        9206|   -3.496363|    0.777241|    0.716739|   -3.427989|
|        9207|   -3.501877|    0.779830|    0.711847|   -3.429858|
|        9208|   -3.507401|    0.782729|    0.707018|   -3.431617|
|        9209|   -3.512943|    0.785945|    0.702253|   -3.433258|
|        9210|   -3.518498|    0.789475|    0.697557|   -3.434780|
|        9211|   -3.524068|    0.793294|    0.692916|   -3.436187|
|        9212|   -3.529653|    0.797416|    0.688344|   -3.437494|
|        9213|   -3.535254|    0.801832|    0.683848|   -3.438732|
|        9214|   -3.540876|    0.806528|    0.679429|   -3.439940|
|        9215|   -3.546530|    0.811488|    0.675083|   -3.441175|
|        9216|   -3.552230|    0.816695|    0.670791|   -3.442506|
|        9217|   -3.557991|    0.822124|    0.666537|   -3.444009|
|        9218|   -3.563826|    0.827751|    0.662308|   -3.445776|
|        9219|   -3.569747|    0.833547|    0.658089|   -3.447895|
|        9220|   -3.575774|    0.839477|    0.653866|   -3.450463|
|        9221|   -3.581926|    0.845504|    0.649614|   -3.453580|
|        9222|   -3.588220|    0.851599|    0.645311|   -3.457326|
|        9223|   -3.594674|    0.857719|    0.640930|   -3.461781|
|        9224|   -3.601304|    0.863832|    0.636453|   -3.466998|
|        9225|   -3.608127|    0.869909|    0.631860|   -3.473018|
|        9226|   -3.615163|    0.875923|    0.627137|   -3.479866|
|        9227|   -3.622424|    0.881840|    0.622256|   -3.487548|
|        9228|   -3.629933|    0.887638|    0.617190|   -3.496054|
|        9229|   -3.637705|    0.893299|    0.611914|   -3.505360|
|        9230|   -3.645756|    0.898811|    0.606417|   -3.515421|
|        9231|   -3.654095|    0.904148|    0.600675|   -3.526189|
|        9232|   -3.662730|    0.909305|    0.594656|   -3.537599|
|        9233|   -3.671679|    0.914270|    0.588350|   -3.549589|
|        9234|   -3.680948|    0.919046|    0.581734|   -3.562084|
|        9235|   -3.690541|    0.923623|    0.574807|   -3.575010|
|        9236|   -3.700457|    0.927991|    0.567523|   -3.588305|
|        9237|   -3.710718|    0.932155|    0.559868|   -3.601895|
|        9238|   -3.721302|    0.936108|    0.551821|   -3.615699|
|        9239|   -3.732209|    0.939867|    0.543482|   -3.629644|
|        9240|   -3.743439|    0.943432|    0.534736|   -3.643626|
|        9241|   -3.754991|    0.946781|    0.525579|   -3.657547|
|        9242|   -3.766864|    0.949940|    0.515962|   -3.671394|
|        9243|   -3.779053|    0.952889|    0.505586|   -3.685140|
|        9244|   -3.791571|    0.955659|    0.494793|   -3.698527|
|        9245|   -3.804420|    0.958240|    0.483330|   -3.711535|
|        9246|   -3.817603|    0.960646|    0.471242|   -3.723974|
|        9247|   -3.831122|    0.962879|    0.458342|   -3.735829|
|        9248|   -3.844993|    0.964937|    0.444664|   -3.746926|
|        9249|   -3.859223|    0.966843|    0.430562|   -3.757104|
|        9250|   -3.873809|    0.968597|    0.415210|   -3.766288|
|        9251|   -3.888770|    0.970197|    0.399119|   -3.771922|
|        9252|   -3.904104|    0.971658|    0.381649|   -3.777258|
|        9253|   -3.919821|    0.972949|    0.363068|   -3.780793|
|        9254|   -3.935908|    0.974104|    0.343257|   -3.784494|
|        9255|   -3.952317|    0.975124|    0.321691|   -3.788128|
|        9256|   -3.969006|    0.976006|    0.299143|   -3.790859|
|        9257|   -3.985891|    0.976777|    0.274831|   -3.792965|
|        9258|   -4.002859|    0.977407|    0.249787|   -3.793765|
|        9259|   -4.019694|    0.977921|    0.224681|   -3.792242|
|        9260|   -4.036212|    0.978307|    0.197908|   -3.789640|
|        9261|   -4.052114|    0.978503|    0.162320|   -3.786900|
|        9262|   -4.067071|    0.978607|    0.132872|   -3.782760|
|        9263|   -4.080550|    0.978616|    0.107638|   -3.777464|
|        9264|   -4.092064|    0.978500|    0.082827|   -3.771394|
|        9265|   -4.101117|    0.978174|    0.056401|   -3.765456|
|        9266|   -4.107247|    0.977759|    0.042395|   -3.758237|
|        9267|   -4.109915|    0.977234|    0.038295|   -3.751022|
|        9268|   -4.108781|    0.976536|    0.041096|   -3.743723|
|        9269|   -4.103769|    0.975658|    0.050986|   -3.736061|
|        9270|   -4.095060|    0.974659|    0.069901|   -3.728254|
|        9271|   -4.082911|    0.973493|    0.094283|   -3.720344|
|        9272|   -4.067857|    0.972188|    0.123339|   -3.712378|
|        9273|   -4.050451|    0.970748|    0.153661|   -3.704086|
