scsub> Executing:  'cd /home/hem1dev/Codes/SU2_Github_Mark_Test/SU2/Venturi'


WARNING: CONV_CRITERIA is deprecated. SU2 will choose the criteria automatically based on the CONV_FIELD.
That is, RESIDUAL for any RMS_* BGS_* value, and CAUCHY for coefficients such as DRAG etc.


-------------------------------------------------------------------------
|    ___ _   _ ___                                                      |
|   / __| | | |_  )   Release 7.1.1 "Blackbird"                         |
|   \__ \ |_| |/ /                                                      |
|   |___/\___//___|   Suite (Computational Fluid Dynamics Code)         |
|                                                                       |
-------------------------------------------------------------------------
| SU2 Project Website: https://su2code.github.io                        |
|                                                                       |
| The SU2 Project is maintained by the SU2 Foundation                   |
| (http://su2foundation.org)                                            |
-------------------------------------------------------------------------
| Copyright 2012-2021, SU2 Contributors                                 |
|                                                                       |
| SU2 is free software; you can redistribute it and/or                  |
| modify it under the terms of the GNU Lesser General Public            |
| License as published by the Free Software Foundation; either          |
| version 2.1 of the License, or (at your option) any later version.    |
|                                                                       |
| SU2 is distributed in the hope that it will be useful,                |
| but WITHOUT ANY WARRANTY; without even the implied warranty of        |
| MERCHANTABILITY or FITNESS FOR A PARTICULAR PURPOSE. See the GNU      |
| Lesser General Public License for more details.                       |
|                                                                       |
| You should have received a copy of the GNU Lesser General Public      |
| License along with SU2. If not, see <http://www.gnu.org/licenses/>.   |
-------------------------------------------------------------------------


WARNING: CONV_CRITERIA is deprecated. SU2 will choose the criteria automatically based on the CONV_FIELD.
That is, RESIDUAL for any RMS_* BGS_* value, and CAUCHY for coefficients such as DRAG etc.


Parsing config file for zone 0


WARNING: CONV_CRITERIA is deprecated. SU2 will choose the criteria automatically based on the CONV_FIELD.
That is, RESIDUAL for any RMS_* BGS_* value, and CAUCHY for coefficients such as DRAG etc.


----------------- Physical Case Definition ( Zone 0 ) -------------------
Incompressible RANS equations.
Turbulence model: Menter's SST
Hybrid RANS/LES: No Hybrid RANS/LES
No restart solution, use the values at infinity (freestream).
Dimensional simulation.
The reference area is 1 m^2.
The semi-span will be computed using the max y(3D) value.
The reference length is 1 m.
Input mesh file name: SmallBoxVerification.su2

--------------- Space Numerical Integration ( Zone 0 ) ------------------
Flux difference splitting (FDS) upwind scheme for the flow inviscid terms.
Second order integration in space, with slope limiter.
No slope-limiting method. 
Average of gradients with correction (viscous flow terms).
Average of gradients with correction (viscous turbulence terms).
Gradient for upwind reconstruction: Green-Gauss.
Gradient for viscous and source terms: Green-Gauss.

--------------- Time Numerical Integration  ( Zone 0 ) ------------------
Local time stepping (steady state simulation).
Euler implicit method for the flow equations.
FGMRES is used for solving the linear system.
Using a ILU(0) preconditioning.
Convergence criteria of the linear solver: 1e-08.
Max number of linear iterations: 50.
No CFL adaptation.
Courant-Friedrichs-Lewy number:       30
Euler implicit time integration for the turbulence model.

------------------ Convergence Criteria  ( Zone 0 ) ---------------------
Maximum number of solver subiterations: 10000.
Begin convergence monitoring at iteration 10.
Residual minimum value: 1e-12.
Cauchy series min. value: 1e-06.
Number of Cauchy elements: 100.
Begin windowed time average at iteration 0.

-------------------- Output Information ( Zone 0 ) ----------------------
Writing solution files every 1000 iterations.
Writing the convergence history file every 1 inner iterations.
Writing the screen convergence history every 1 inner iterations.
The tabular file format is CSV (.csv).
Convergence history file name: history_smallbox_turb.
Forces breakdown file name: forces_breakdown.dat.
Surface file name: surface_verification_mixtureviscosity_smallbox_turb.
Volume file name: flow_verification_mixtureviscosity_smallbox_turb.
Restart file name: restart_verification_mixtureviscosity_smallbox_turb.dat.

------------- Config File Boundary Information ( Zone 0 ) ---------------
+-----------------------------------------------------------------------+
|                        Marker Type|                        Marker Name|
+-----------------------------------------------------------------------+
|                     Inlet boundary|                      inlet_methane|
|                                   |                          inlet_air|
+-----------------------------------------------------------------------+
|                    Outlet boundary|                             outlet|
+-----------------------------------------------------------------------+
|                     Heat flux wall|                               wall|
+-----------------------------------------------------------------------+

-------------------- Output Preprocessing ( Zone 0 ) --------------------
Screen output fields: INNER_ITER, RMS_PRESSURE, RMS_VELOCITY-X, RMS_VELOCITY-Y, RMS_PASSIVE_SCALAR
History output group(s): RMS_RES, AERO_COEFF, FLOW_COEFF
Ignoring Convergence Field(s): RMS_DENSITY 
Convergence field(s): RMS_PRESSURE, RMS_VELOCITY-X, RMS_VELOCITY-Y, RMS_TKE
Warning: No (valid) fields chosen for time convergence monitoring. Time convergence monitoring inactive.
  Info: Ignoring the following volume output fields/groups:
  SOURCE, LOOKUP
Volume output fields: DENSITY, SOLUTION, PRIMITIVE, RESIDUAL, COORDINATES

------------------- Geometry Preprocessing ( Zone 0 ) -------------------
Two dimensional problem.
380 grid points before partitioning.
342 volume elements before partitioning.
4 surface markers.
38 boundary elements in index 0 (Marker = wall).
18 boundary elements in index 1 (Marker = outlet).
9 boundary elements in index 2 (Marker = inlet_air).
9 boundary elements in index 3 (Marker = inlet_methane).
Executing the partitioning functions.
Building the graph adjacency structure.
Calling ParMETIS... graph partitioning complete (356 edge cuts).
Distributing ParMETIS coloring.
Rebalancing vertices.
Rebalancing volume element connectivity.
Rebalancing markers and surface elements.
1311 vertices including ghost points. 
743 interior elements including halo cells. 
743 quadrilaterals.
Establishing MPI communication patterns.
Setting point connectivity.
Renumbering points (Reverse Cuthill McKee Ordering).
Recomputing point connectivity.
Setting element connectivity.
Checking the numerical grid orientation.
There has been a re-orientation of 743 QUADRILATERAL volume elements.
There has been a re-orientation of 102 LINE surface elements.
Identifying edges and vertices.
Setting the control volume structure.
Area of the computational grid: 0.217251.
Searching for the closest normal neighbors to the surfaces.
Storing a mapping from global to local point index.
Compute the surface curvature.
Max K: 37.7901. Mean K: 3.82684. Standard deviation K: 11.4005.
Checking for periodicity.
Computing mesh quality statistics for the dual control volumes.
+--------------------------------------------------------------+
|           Mesh Quality Metric|        Minimum|        Maximum|
+--------------------------------------------------------------+
|    Orthogonality Angle (deg.)|             90|             90|
|     CV Face Area Aspect Ratio|        4.73684|        18.9474|
|           CV Sub-Volume Ratio|              1|              1|
+--------------------------------------------------------------+
Finding max control volume width.
Communicating number of neighbors.
Wetted area = 0 m.
Area projection in the x-plane = 0 m, y-plane = 0 m.
Max. coordinate in the x-direction = -1e+10 m, y-direction = -1e+10 m.
Min. coordinate in the x-direction = 1e+10 m, y-direction = 1e+10 m.
Computing wall distances.

-------------------- Solver Preprocessing ( Zone 0 ) --------------------
Incompressible flow: rho_ref, vel_ref, temp_ref, p_ref
are set to 1.0 in order to perform a dimensional calculation.
Force coefficients computed using initial values.
The reference area for force coeffs. is 1 m^2.
The reference length for force coeffs. is 1 m.
The pressure is decomposed into thermodynamic and dynamic components.
The initial value of the dynamic pressure is 0.
Mach number: 0, computed using fluid speed of sound.
For external flows, the initial state is imposed at the far-field.
Angle of attack (deg): 0, computed using the initial velocity.
Side slip angle (deg): 0, computed using the initial velocity.
Reynolds number per meter: 66852.4, computed using initial values.
Reynolds number is a byproduct of inputs only (not used internally).
SI units only. The grid should be dimensional (meters).
Energy equation is active and coupled for variable density.

-- Models:
+------------------------------------------------------------------------------+
|          Viscosity Model|        Conductivity Model|              Fluid Model|
+------------------------------------------------------------------------------+
|               SUTHERLAND|          CONSTANT_PRANDTL|+------------------------------------------------------------------------------+
-- Fluid properties:
+------------------------------------------------------------------------------+
|                  Name|    Dim. value|    Ref. value|      Unit|Non-dim. value|
+------------------------------------------------------------------------------+
|        Ref. Viscosity|     1.716e-05|             1|   N.s/m^2|     1.716e-05|
|      Sutherland Temp.|        273.15|             1|         K|        273.15|
|     Sutherland Const.|         110.4|             1|         K|         110.4|
+------------------------------------------------------------------------------+
|        Prandtl (Lam.)|             -|             -|         -|          0.72|
|       Prandtl (Turb.)|             -|             -|         -|           0.9|
+------------------------------------------------------------------------------+
-- Initial and free-stream conditions:
+------------------------------------------------------------------------------+
|                  Name|    Dim. value|    Ref. value|      Unit|Non-dim. value|
+------------------------------------------------------------------------------+
|      Dynamic Pressure|             0|             1|        Pa|             0|
|        Total Pressure|           0.6|             1|        Pa|           0.6|
|               Density|           1.2|             1|    kg/m^3|           1.2|
|           Temperature|           300|             1|         K|           300|
|            Velocity-X|             1|             1|       m/s|             1|
|            Velocity-Y|             0|             1|       m/s|             0|
|    Velocity Magnitude|             1|             1|       m/s|             1|
+------------------------------------------------------------------------------+
|             Viscosity|     1.795e-05|             1|   N.s/m^2|     1.795e-05|
|          Conductivity|             -|             1|   W/m^2.K|             -|
|     Turb. Kin. Energy|       0.00375|             1|   m^2/s^2|       0.00375|
|     Spec. Dissipation|       25.0696|             1|       1/s|       25.0696|
+------------------------------------------------------------------------------+
|           Mach Number|             -|             -|         -|             0|
|       Reynolds Number|             -|             -|         -|       66852.4|
+------------------------------------------------------------------------------+
Initialize Jacobian structure (Navier-Stokes). MG level: 0.
Initialize Jacobian structure (passive scalar model).
Initialize Jacobian structure (SST model).

------------------- Numerics Preprocessing ( Zone 0 ) -------------------

----------------- Integration Preprocessing ( Zone 0 ) ------------------

------------------- Iteration Preprocessing ( Zone 0 ) ------------------
Euler/Navier-Stokes/RANS fluid iteration.

------------------------------ Begin Solver -----------------------------

Simulation Run using the Single-zone Driver
Initializing passive scalar (initial condition).
initialization = 1 1
+----------------------------------------------------------------+
|  Inner_Iter|      rms[P]|      rms[U]|      rms[V]|      rms[c]|
+----------------------------------------------------------------+
|           0|   -4.781938|   -4.788233|  -19.855848|   -4.917044|
|           1|   -3.812769|   -4.123350|   -6.128914|   -3.113196|
|           2|   -4.035347|   -3.927976|   -4.028827|   -3.242753|
|           3|   -4.233845|   -3.840969|   -4.169154|   -3.310728|
|           4|   -4.363827|   -3.866906|   -4.545379|   -3.353270|
|           5|   -4.437035|   -3.921239|   -5.051751|   -3.384361|
|           6|   -4.452331|   -3.961313|   -5.172171|   -3.409598|
|           7|   -4.462394|   -3.985392|   -5.203565|   -3.431199|
|           8|   -4.480898|   -4.005362|   -5.252766|   -3.450232|
|           9|   -4.499416|   -4.024977|   -5.288583|   -3.467241|
|          10|   -4.516332|   -4.042625|   -5.325122|   -3.483270|
|          11|   -4.533956|   -4.058066|   -5.364186|   -3.497984|
|          12|   -4.552931|   -4.072441|   -5.397078|   -3.511913|
|          13|   -4.573489|   -4.086913|   -5.420069|   -3.524980|
|          14|   -4.596534|   -4.101703|   -5.436403|   -3.537392|
|          15|   -4.622634|   -4.116882|   -5.449588|   -3.549011|
|          16|   -4.651434|   -4.132657|   -5.461663|   -3.559797|
|          17|   -4.682227|   -4.149290|   -5.473657|   -3.569792|
|          18|   -4.714786|   -4.166816|   -5.486623|   -3.579272|
|          19|   -4.749537|   -4.184824|   -5.501395|   -3.588783|
|          20|   -4.786806|   -4.202673|   -5.517946|   -3.599112|
|          21|   -4.825722|   -4.219683|   -5.523634|   -3.611222|
|          22|   -4.862698|   -4.235349|   -5.512034|   -3.626039|
|          23|   -4.892794|   -4.249838|   -5.517983|   -3.644529|
|          24|   -4.912331|   -4.263671|   -5.534650|   -3.667629|
|          25|   -4.922350|   -4.277437|   -5.550530|   -3.696184|
|          26|   -4.928430|   -4.291731|   -5.562282|   -3.730873|
|          27|   -4.937399|   -4.307083|   -5.574981|   -3.772163|
|          28|   -4.954666|   -4.323863|   -5.587303|   -3.820043|
|          29|   -4.983335|   -4.342358|   -5.598635|   -3.873898|
|          30|   -5.024094|   -4.363177|   -5.610169|   -3.932344|
|          31|   -5.075174|   -4.386944|   -5.622374|   -3.992999|
|          32|   -5.131662|   -4.414213|   -5.634146|   -4.052735|
|          33|   -5.184789|   -4.445162|   -5.645735|   -4.108294|
|          34|   -5.224417|   -4.479554|   -5.657591|   -4.157268|
|          35|   -5.246125|   -4.516523|   -5.669276|   -4.198919|
|          36|   -5.255817|   -4.554603|   -5.680171|   -4.234118|
|          37|   -5.264855|   -4.592349|   -5.692297|   -4.264455|
|          38|   -5.283147|   -4.628748|   -5.703076|   -4.291508|
|          39|   -5.317179|   -4.663304|   -5.712396|   -4.316439|
|          40|   -5.370458|   -4.696409|   -5.721849|   -4.339989|
|          41|   -5.443785|   -4.729116|   -5.733318|   -4.362627|
|          42|   -5.532763|   -4.763021|   -5.743100|   -4.384745|
|          43|   -5.622118|   -4.798428|   -5.755120|   -4.406630|
|          44|   -5.682559|   -4.834681|   -5.776261|   -4.428479|
|          45|   -5.694997|   -4.870663|   -5.806565|   -4.450506|
|          46|   -5.679446|   -4.904834|   -5.843802|   -4.472869|
|          47|   -5.666061|   -4.935805|   -5.885889|   -4.495683|
|          48|   -5.670027|   -4.963588|   -5.930164|   -4.518969|
|          49|   -5.695242|   -4.989246|   -5.974792|   -4.542703|
|          50|   -5.739002|   -5.014583|   -6.018349|   -4.566831|
|          51|   -5.790649|   -5.041737|   -6.060256|   -4.591262|
|          52|   -5.827330|   -5.072856|   -6.100197|   -4.615887|
|          53|   -5.823776|   -5.109853|   -6.138676|   -4.640589|
|          54|   -5.781464|   -5.154492|   -6.176249|   -4.665275|
|          55|   -5.725312|   -5.208240|   -6.213821|   -4.689889|
|          56|   -5.674882|   -5.271123|   -6.253125|   -4.714424|
|          57|   -5.638055|   -5.341994|   -6.293091|   -4.738915|
|          58|   -5.616435|   -5.416525|   -6.332228|   -4.763408|
|          59|   -5.609253|   -5.486163|   -6.368446|   -4.787945|
|          60|   -5.614759|   -5.538436|   -6.401502|   -4.812534|
|          61|   -5.630481|   -5.566129|   -6.430660|   -4.837148|
|          62|   -5.653058|   -5.573215|   -6.456354|   -4.861726|
|          63|   -5.678034|   -5.571278|   -6.480015|   -4.886192|
|          64|   -5.700126|   -5.569372|   -6.503533|   -4.910479|
|          65|   -5.714506|   -5.570888|   -6.528659|   -4.934541|
|          66|   -5.718783|   -5.574195|   -6.556749|   -4.958367|
|          67|   -5.714150|   -5.574237|   -6.588639|   -4.981976|
|          68|   -5.704460|   -5.565007|   -6.624473|   -5.005406|
|          69|   -5.694214|   -5.543102|   -6.663736|   -5.028691|
|          70|   -5.687127|   -5.510050|   -6.705056|   -5.051848|
|          71|   -5.685720|   -5.471023|   -6.746131|   -5.074864|
|          72|   -5.691457|   -5.431661|   -6.783962|   -5.097693|
|          73|   -5.704991|   -5.396101|   -6.815695|   -5.120264|
|          74|   -5.726319|   -5.366701|   -6.839979|   -5.142499|
|          75|   -5.754834|   -5.344493|   -6.857892|   -5.164329|
|          76|   -5.789311|   -5.329666|   -6.872490|   -5.185716|
|          77|   -5.827952|   -5.321910|   -6.887273|   -5.206653|
|          78|   -5.868640|   -5.320612|   -6.904692|   -5.227164|
|          79|   -5.909545|   -5.324990|   -6.925254|   -5.247281|
|          80|   -5.949970|   -5.334194|   -6.947102|   -5.267023|
|          81|   -5.991012|   -5.347418|   -6.966205|   -5.286367|
|          82|   -6.035609|   -5.364014|   -6.977760|   -5.305239|
|          83|   -6.088034|   -5.383604|   -6.978927|   -5.323510|
|          84|   -6.153337|   -5.406159|   -6.971022|   -5.341020|
|          85|   -6.236987|   -5.432015|   -6.958850|   -5.357614|
|          86|   -6.343793|   -5.461820|   -6.948088|   -5.373187|
|          87|   -6.470623|   -5.496484|   -6.943313|   -5.387723|
|          88|   -6.574186|   -5.537061|   -6.947531|   -5.401320|
|          89|   -6.561407|   -5.584642|   -6.962520|   -5.414186|
|          90|   -6.460497|   -5.640317|   -6.989202|   -5.426612|
|          91|   -6.358805|   -5.705078|   -7.027860|   -5.438924|
|          92|   -6.280474|   -5.779625|   -7.078061|   -5.451436|
|          93|   -6.224519|   -5.863857|   -7.138231|   -5.464404|
|          94|   -6.186199|   -5.955560|   -7.204677|   -5.477994|
|          95|   -6.160895|   -6.047601|   -7.270546|   -5.492269|
|          96|   -6.144457|   -6.124319|   -7.326199|   -5.507194|
|          97|   -6.133175|   -6.164970|   -7.363733|   -5.522650|
|          98|   -6.123944|   -6.162011|   -7.383359|   -5.538464|
|          99|   -6.114620|   -6.129065|   -7.393250|   -5.554437|
|         100|   -6.104331|   -6.083344|   -7.403030|   -5.570376|
|         101|   -6.093462|   -6.034254|   -7.419222|   -5.586111|
|         102|   -6.083267|   -5.985253|   -7.444579|   -5.601507|
|         103|   -6.075337|   -5.937576|   -7.478732|   -5.616459|
|         104|   -6.071175|   -5.892091|   -7.518295|   -5.630889|
|         105|   -6.071977|   -5.849756|   -7.556448|   -5.644733|
|         106|   -6.078592|   -5.811526|   -7.584026|   -5.657935|
|         107|   -6.091561|   -5.778182|   -7.594135|   -5.670450|
|         108|   -6.111192|   -5.750244|   -7.587377|   -5.682251|
|         109|   -6.137621|   -5.727975|   -7.570962|   -5.693338|
|         110|   -6.170868|   -5.711419|   -7.552916|   -5.703746|
|         111|   -6.210895|   -5.700458|   -7.538364|   -5.713536|
|         112|   -6.257667|   -5.694863|   -7.529094|   -5.722796|
|         113|   -6.311247|   -5.694332|   -7.524423|   -5.731611|
|         114|   -6.371939|   -5.698535|   -7.522032|   -5.740051|
|         115|   -6.440472|   -5.707145|   -7.518836|   -5.748153|
|         116|   -6.518204|   -5.719871|   -7.512143|   -5.755910|
|         117|   -6.607158|   -5.736498|   -7.500854|   -5.763276|
|         118|   -6.709209|   -5.756906|   -7.485958|   -5.770180|
|         119|   -6.821620|   -5.781097|   -7.470018|   -5.776547|
|         120|   -6.920860|   -5.809205|   -7.456100|   -5.782320|
|         121|   -6.946560|   -5.841497|   -7.446930|   -5.787483|
|         122|   -6.878996|   -5.878363|   -7.444537|   -5.792071|
|         123|   -6.778956|   -5.920279|   -7.450283|   -5.796170|
|         124|   -6.686461|   -5.967780|   -7.465007|   -5.799904|
|         125|   -6.610284|   -6.021394|   -7.489170|   -5.803413|
|         126|   -6.549677|   -6.081495|   -7.522861|   -5.806835|
|         127|   -6.502216|   -6.148021|   -7.565761|   -5.810284|
|         128|   -6.465543|   -6.219820|   -7.616919|   -5.813834|
|         129|   -6.437618|   -6.293322|   -7.674350|   -5.817520|
|         130|   -6.416700|   -6.360440|   -7.734536|   -5.821333|
|         131|   -6.401300|   -6.407742|   -7.792256|   -5.825235|
|         132|   -6.390173|   -6.422484|   -7.841606|   -5.829166|
|         133|   -6.382343|   -6.404137|   -7.878615|   -5.833059|
|         134|   -6.377136|   -6.364619|   -7.903618|   -5.836853|
|         135|   -6.374197|   -6.316884|   -7.920567|   -5.840497|
|         136|   -6.373475|   -6.268764|   -7.934074|   -5.843961|
|         137|   -6.375174|   -6.223755|   -7.946915|   -5.847229|
|         138|   -6.379674|   -6.183105|   -7.959125|   -5.850300|
|         139|   -6.387453|   -6.147141|   -7.968553|   -5.853183|
|         140|   -6.399018|   -6.115874|   -7.972127|   -5.855891|
|         141|   -6.414868|   -6.089235|   -7.967622|   -5.858442|
|         142|   -6.435471|   -6.067146|   -7.955063|   -5.860851|
|         143|   -6.461273|   -6.049534|   -7.936673|   -5.863129|
|         144|   -6.492723|   -6.036325|   -7.915576|   -5.865290|
|         145|   -6.530317|   -6.027440|   -7.894480|   -5.867339|
|         146|   -6.574662|   -6.022786|   -7.875076|   -5.869282|
|         147|   -6.626573|   -6.022265|   -7.858063|   -5.871120|
|         148|   -6.687214|   -6.025772|   -7.843445|   -5.872851|
|         149|   -6.758316|   -6.033210|   -7.830884|   -5.874469|
|         150|   -6.842505|   -6.044493|   -7.820011|   -5.875965|
|         151|   -6.943775|   -6.059561|   -7.810652|   -5.877332|
|         152|   -7.067763|   -6.078389|   -7.802944|   -5.878563|
|         153|   -7.218605|   -6.100996|   -7.797339|   -5.879657|
|         154|   -7.370082|   -6.127450|   -7.794520|   -5.880618|
|         155|   -7.393102|   -6.157873|   -7.795280|   -5.881463|
|         156|   -7.269046|   -6.192432|   -7.800434|   -5.882213|
|         157|   -7.135208|   -6.231328|   -7.810715|   -5.882899|
|         158|   -7.028195|   -6.274756|   -7.826749|   -5.883555|
|         159|   -6.945155|   -6.322834|   -7.849047|   -5.884218|
|         160|   -6.880239|   -6.375451|   -7.877978|   -5.884920|
|         161|   -6.829080|   -6.431981|   -7.913749|   -5.885687|
|         162|   -6.788665|   -6.490750|   -7.956354|   -5.886536|
|         163|   -6.756870|   -6.548196|   -8.005469|   -5.887476|
|         164|   -6.732150|   -6.598061|   -8.060258|   -5.888502|
|         165|   -6.713341|   -6.631961|   -8.119076|   -5.889602|
|         166|   -6.699556|   -6.643151|   -8.179082|   -5.890756|
|         167|   -6.690116|   -6.631490|   -8.235980|   -5.891939|
|         168|   -6.684523|   -6.603491|   -8.284384|   -5.893124|
|         169|   -6.682437|   -6.567392|   -8.319343|   -5.894284|
|         170|   -6.683662|   -6.529371|   -8.338516|   -5.895393|
|         171|   -6.688132|   -6.492948|   -8.343098|   -5.896430|
|         172|   -6.695896|   -6.459799|   -8.336544|   -5.897376|
|         173|   -6.707102|   -6.430590|   -8.322562|   -5.898220|
|         174|   -6.721978|   -6.405500|   -8.304038|   -5.898953|
|         175|   -6.740826|   -6.384503|   -8.282964|   -5.899571|
|         176|   -6.764014|   -6.367503|   -8.260752|   -5.900075|
|         177|   -6.791982|   -6.354389|   -8.238493|   -5.900469|
|         178|   -6.825259|   -6.345060|   -8.217058|   -5.900758|
|         179|   -6.864500|   -6.339435|   -8.197126|   -5.900951|
|         180|   -6.910543|   -6.337449|   -8.179174|   -5.901058|
|         181|   -6.964499|   -6.339053|   -8.163492|   -5.901089|
|         182|   -7.027892|   -6.344217|   -8.150219|   -5.901055|
|         183|   -7.102868|   -6.352922|   -8.139398|   -5.900966|
|         184|   -7.192477|   -6.365169|   -8.131037|   -5.900834|
|         185|   -7.300807|   -6.380978|   -8.125161|   -5.900669|
|         186|   -7.431402|   -6.400392|   -8.121851|   -5.900478|
|         187|   -7.574505|   -6.423477|   -8.121266|   -5.900272|
|         188|   -7.658563|   -6.450326|   -8.123644|   -5.900058|
|         189|   -7.596714|   -6.481057|   -8.129293|   -5.899844|
|         190|   -7.473658|   -6.515799|   -8.138566|   -5.899637|
|         191|   -7.362463|   -6.554671|   -8.151841|   -5.899444|
|         192|   -7.273397|   -6.597734|   -8.169500|   -5.899271|
|         193|   -7.202916|   -6.644887|   -8.191909|   -5.899124|
|         194|   -7.146852|   -6.695679|   -8.219400|   -5.899005|
|         195|   -7.102070|   -6.748966|   -8.252247|   -5.898919|
|         196|   -7.066343|   -6.802361|   -8.290635|   -5.898867|
|         197|   -7.038083|   -6.851595|   -8.334588|   -5.898850|
|         198|   -7.016133|   -6.890401|   -8.383845|   -5.898866|
|         199|   -6.999633|   -6.912172|   -8.437621|   -5.898914|
|         200|   -6.987937|   -6.913600|   -8.494211|   -5.898990|
|         201|   -6.980560|   -6.897095|   -8.550410|   -5.899093|
|         202|   -6.977140|   -6.868948|   -8.601035|   -5.899218|
|         203|   -6.977422|   -6.835600|   -8.639383|   -5.899362|
|         204|   -6.981243|   -6.801612|   -8.659684|   -5.899521|
|         205|   -6.988524|   -6.769591|   -8.660548|   -5.899693|
|         206|   -6.999263|   -6.740814|   -8.645791|   -5.899876|
|         207|   -7.013536|   -6.715800|   -8.621604|   -5.900067|
|         208|   -7.031494|   -6.694686|   -8.593431|   -5.900265|
|         209|   -7.053368|   -6.677432|   -8.564840|   -5.900468|
|         210|   -7.079474|   -6.663929|   -8.537785|   -5.900675|
|         211|   -7.110231|   -6.654055|   -8.513204|   -5.900885|
|         212|   -7.146182|   -6.647700|   -8.491488|   -5.901098|
|         213|   -7.188041|   -6.644774|   -8.472755|   -5.901312|
|         214|   -7.236749|   -6.645210|   -8.457005|   -5.901525|
|         215|   -7.293586|   -6.648969|   -8.444188|   -5.901738|
|         216|   -7.360321|   -6.656033|   -8.434247|   -5.901947|
|         217|   -7.439462|   -6.666409|   -8.427127|   -5.902153|
|         218|   -7.534551|   -6.680124|   -8.422797|   -5.902354|
|         219|   -7.650143|   -6.697228|   -8.421251|   -5.902548|
|         220|   -7.788602|   -6.717793|   -8.422518|   -5.902735|
|         221|   -7.927775|   -6.741910|   -8.426666|   -5.902915|
|         222|   -7.967255|   -6.769687|   -8.433812|   -5.903086|
|         223|   -7.868352|   -6.801239|   -8.444108|   -5.903248|
|         224|   -7.742965|   -6.836670|   -8.457749|   -5.903402|
|         225|   -7.637616|   -6.876036|   -8.474959|   -5.903547|
|         226|   -7.554233|   -6.919271|   -8.496000|   -5.903685|
|         227|   -7.488261|   -6.966051|   -8.521160|   -5.903814|
|         228|   -7.435705|   -7.015551|   -8.550735|   -5.903937|
|         229|   -7.393696|   -7.066056|   -8.585021|   -5.904052|
|         230|   -7.360220|   -7.114451|   -8.624277|   -5.904161|
|         231|   -7.333848|   -7.155899|   -8.668666|   -5.904264|
|         232|   -7.313542|   -7.184513|   -8.718128|   -5.904360|
|         233|   -7.298541|   -7.195712|   -8.772131|   -5.904448|
|         234|   -7.288281|   -7.189053|   -8.829207|   -5.904530|
|         235|   -7.282343|   -7.168534|   -8.886206|   -5.904603|
|         236|   -7.280420|   -7.140003|   -8.937476|   -5.904668|
|         237|   -7.282300|   -7.108542|   -8.975084|   -5.904723|
|         238|   -7.287848|   -7.077535|   -8.991843|   -5.904767|
|         239|   -7.297001|   -7.048879|   -8.986202|   -5.904801|
|         240|   -7.309764|   -7.023504|   -8.963446|   -5.904823|
|         241|   -7.326210|   -7.001784|   -8.931531|   -5.904834|
|         242|   -7.346484|   -6.983808|   -8.896922|   -5.904833|
|         243|   -7.370809|   -6.969527|   -8.863483|   -5.904820|
|         244|   -7.399502|   -6.958839|   -8.833095|   -5.904795|
|         245|   -7.432993|   -6.951632|   -8.806495|   -5.904760|
|         246|   -7.471855|   -6.947802|   -8.783843|   -5.904715|
|         247|   -7.516854|   -6.947267|   -8.765051|   -5.904661|
|         248|   -7.569019|   -6.949967|   -8.749934|   -5.904599|
|         249|   -7.629749|   -6.955869|   -8.738296|   -5.904531|
|         250|   -7.700965|   -6.964967|   -8.729960|   -5.904457|
|         251|   -7.785278|   -6.977277|   -8.724782|   -5.904380|
|         252|   -7.885963|   -6.992842|   -8.722661|   -5.904300|
|         253|   -8.005404|   -7.011731|   -8.723533|   -5.904219|
|         254|   -8.135479|   -7.034031|   -8.727375|   -5.904138|
|         255|   -8.224121|   -7.059852|   -8.734201|   -5.904058|
|         256|   -8.192161|   -7.089315|   -8.744072|   -5.903980|
|         257|   -8.085396|   -7.122540|   -8.757076|   -5.903907|
|         258|   -7.977872|   -7.159618|   -8.773339|   -5.903837|
|         259|   -7.888431|   -7.200559|   -8.793022|   -5.903773|
|         260|   -7.816492|   -7.245185|   -8.816318|   -5.903714|
|         261|   -7.758740|   -7.292956|   -8.843446|   -5.903662|
|         262|   -7.712291|   -7.342649|   -8.874645|   -5.903616|
|         263|   -7.674995|   -7.391913|   -8.910149|   -5.903577|
|         264|   -7.645290|   -7.436797|   -8.950154|   -5.903545|
|         265|   -7.622040|   -7.471832|   -8.994738|   -5.903520|
|         266|   -7.604404|   -7.491528|   -9.043706|   -5.903501|
|         267|   -7.591761|   -7.493224|   -9.096301|   -5.903489|
|         268|   -7.583646|   -7.478892|   -9.150692|   -5.903484|
|         269|   -7.579719|   -7.453767|   -9.203247|   -5.903484|
|         270|   -7.579732|   -7.423449|   -9.247968|   -5.903491|
|         271|   -7.583521|   -7.392135|   -9.277371|   -5.903502|
|         272|   -7.590991|   -7.362385|   -9.285982|   -5.903519|
|         273|   -7.602110|   -7.335550|   -9.274260|   -5.903540|
|         274|   -7.616911|   -7.312241|   -9.248190|   -5.903565|
|         275|   -7.635490|   -7.292670|   -9.215100|   -5.903594|
|         276|   -7.658016|   -7.276841|   -9.180548|   -5.903626|
|         277|   -7.684740|   -7.264672|   -9.147777|   -5.903662|
|         278|   -7.716013|   -7.256046|   -9.118361|   -5.903700|
|         279|   -7.752311|   -7.250847|   -9.092914|   -5.903740|
|         280|   -7.794275|   -7.248970|   -9.071563|   -5.903783|
|         281|   -7.842771|   -7.250338|   -9.054213|   -5.903826|
|         282|   -7.898975|   -7.254895|   -9.040684|   -5.903871|
|         283|   -7.964506|   -7.262612|   -9.030783|   -5.903917|
|         284|   -8.041598|   -7.273488|   -9.024329|   -5.903963|
|         285|   -8.133257|   -7.287548|   -9.021175|   -5.904009|
|         286|   -8.242899|   -7.304842|   -9.021210|   -5.904055|
|         287|   -8.370726|   -7.325444|   -9.024358|   -5.904100|
|         288|   -8.494763|   -7.349452|   -9.030581|   -5.904144|
|         289|   -8.535014|   -7.376980|   -9.039891|   -5.904187|
|         290|   -8.455506|   -7.408145|   -9.052314|   -5.904228|
|         291|   -8.341670|   -7.443055|   -9.067936|   -5.904267|
|         292|   -8.240821|   -7.481760|   -9.086858|   -5.904304|
|         293|   -8.159004|   -7.524183|   -9.109223|   -5.904339|
|         294|   -8.093399|   -7.569976|   -9.135213|   -5.904372|
|         295|   -8.040686|   -7.618289|   -9.165036|   -5.904402|
|         296|   -7.998282|   -7.667387|   -9.198921|   -5.904429|
|         297|   -7.964309|   -7.714183|   -9.237095|   -5.904454|
|         298|   -7.937406|   -7.753977|   -9.279734|   -5.904475|
|         299|   -7.916582|   -7.781171|   -9.326861|   -5.904494|
|         300|   -7.901102|   -7.791517|   -9.378152|   -5.904510|
|         301|   -7.890424|   -7.784704|   -9.432551|   -5.904523|
|         302|   -7.884144|   -7.764562|   -9.487627|   -5.904533|
|         303|   -7.881970|   -7.736662|   -9.538735|   -5.904540|
|         304|   -7.883696|   -7.705889|   -9.578724|   -5.904545|
|         305|   -7.889191|   -7.675533|   -9.599880|   -5.904547|
|         306|   -7.898389|   -7.647477|   -9.598537|   -5.904546|
|         307|   -7.911289|   -7.622660|   -9.578018|   -5.904543|
|         308|   -7.927950|   -7.601475|   -9.545929|   -5.904537|
|         309|   -7.948499|   -7.584023|   -9.509490|   -5.904529|
|         310|   -7.973135|   -7.570264|   -9.473447|   -5.904518|
|         311|   -8.002148|   -7.560100|   -9.440301|   -5.904506|
|         312|   -8.035936|   -7.553413|   -9.411144|   -5.904492|
|         313|   -8.075038|   -7.550095|   -9.386319|   -5.904476|
|         314|   -8.120180|   -7.550052|   -9.365812|   -5.904459|
|         315|   -8.172341|   -7.553216|   -9.349459|   -5.904441|
|         316|   -8.232857|   -7.559543|   -9.337048|   -5.904421|
|         317|   -8.303553|   -7.569015|   -9.328370|   -5.904401|
|         318|   -8.386885|   -7.581641|   -9.323239|   -5.904381|
|         319|   -8.485844|   -7.597458|   -9.321502|   -5.904360|
|         320|   -8.602367|   -7.616526|   -9.323044|   -5.904339|
|         321|   -8.728270|   -7.638931|   -9.327785|   -5.904319|
|         322|   -8.815542|   -7.664782|   -9.335683|   -5.904299|
|         323|   -8.790230|   -7.694198|   -9.346738|   -5.904279|
|         324|   -8.689367|   -7.727299|   -9.360980|   -5.904260|
|         325|   -8.584121|   -7.764177|   -9.378471|   -5.904243|
|         326|   -8.495269|   -7.804839|   -9.399311|   -5.904226|
|         327|   -8.423274|   -7.849107|   -9.423631|   -5.904211|
|         328|   -8.365210|   -7.896437|   -9.451594|   -5.904197|
|         329|   -8.318343|   -7.945607|   -9.483389|   -5.904184|
|         330|   -8.280588|   -7.994275|   -9.519210|   -5.904173|
|         331|   -8.250417|   -8.038528|   -9.559227|   -5.904163|
|         332|   -8.226710|   -8.072981|   -9.603515|   -5.904156|
|         333|   -8.208643|   -8.092252|   -9.651916|   -5.904149|
|         334|   -8.195599|   -8.093751|   -9.703773|   -5.904145|
|         335|   -8.187124|   -8.079420|   -9.757467|   -5.904141|
|         336|   -8.182882|   -8.054404|   -9.809711|   -5.904140|
|         337|   -8.182630|   -8.024222|   -9.854936|   -5.904139|
|         338|   -8.186208|   -7.993035|   -9.885842|   -5.904141|
|         339|   -8.193521|   -7.963398|   -9.896483|   -5.904143|
|         340|   -8.204538|   -7.936666|   -9.886362|   -5.904147|
|         341|   -8.219289|   -7.913463|   -9.860829|   -5.904152|
|         342|   -8.237865|   -7.894006|   -9.827238|   -5.904158|
|         343|   -8.260429|   -7.878308|   -9.791502|   -5.904165|
|         344|   -8.287221|   -7.866288|   -9.757216|   -5.904173|
|         345|   -8.318579|   -7.857828|   -9.726202|   -5.904181|
|         346|   -8.354966|   -7.852809|   -9.699222|   -5.904191|
|         347|   -8.397002|   -7.851127|   -9.676489|   -5.904201|
|         348|   -8.445531|   -7.852695|   -9.657956|   -5.904211|
|         349|   -8.501694|   -7.857454|   -9.643466|   -5.904222|
|         350|   -8.567063|   -7.865369|   -9.632832|   -5.904233|
|         351|   -8.643791|   -7.876432|   -9.625870|   -5.904244|
|         352|   -8.734735|   -7.890663|   -9.622422|   -5.904255|
|         353|   -8.843027|   -7.908107|   -9.622360|   -5.904266|
|         354|   -8.968382|   -7.928835|   -9.625588|   -5.904277|
|         355|   -9.089024|   -7.952940|   -9.632043|   -5.904288|
|         356|   -9.129517|   -7.980536|   -9.641707|   -5.904299|
|         357|   -9.054731|   -8.011741|   -9.654578|   -5.904309|
|         358|   -8.944033|   -8.046663|   -9.670711|   -5.904319|
|         359|   -8.844519|   -8.085357|   -9.690172|   -5.904328|
|         360|   -8.763209|   -8.127752|   -9.713072|   -5.904336|
|         361|   -8.697745|   -8.173512|   -9.739554|   -5.904344|
|         362|   -8.644996|   -8.221801|   -9.769794|   -5.904352|
|         363|   -8.602463|   -8.270904|   -9.803986|   -5.904359|
|         364|   -8.568309|   -8.317752|   -9.842323|   -5.904364|
|         365|   -8.541196|   -8.357656|   -9.884951|   -5.904370|
|         366|   -8.520147|   -8.384988|   -9.931875|   -5.904374|
|         367|   -8.504439|   -8.395441|   -9.982766|   -5.904378|
|         368|   -8.493536|   -8.388640|  -10.036602|   -5.904381|
|         369|   -8.487041|   -8.368404|  -10.091063|   -5.904383|
|         370|   -8.484666|   -8.340334|  -10.141736|   -5.904384|
|         371|   -8.486208|   -8.309354|  -10.181797|   -5.904385|
|         372|   -8.491541|   -8.278791|  -10.203728|   -5.904385|
|         373|   -8.500600|   -8.250542|  -10.203621|   -5.904384|
|         374|   -8.513385|   -8.225557|  -10.184243|   -5.904383|
|         375|   -8.529954|   -8.204232|  -10.152813|   -5.904381|
|         376|   -8.550432|   -8.186669|  -10.116505|   -5.904378|
|         377|   -8.575017|   -8.172828|  -10.080196|   -5.904375|
|         378|   -8.603994|   -8.162607|  -10.046539|   -5.904372|
|         379|   -8.637756|   -8.155887|  -10.016744|   -5.904368|
|         380|   -8.676835|   -8.152557|   -9.991238|   -5.904363|
|         381|   -8.721946|   -8.152521|   -9.970061|   -5.904359|
|         382|   -8.774059|   -8.155705|   -9.953088|   -5.904354|
|         383|   -8.834495|   -8.162061|   -9.940130|   -5.904349|
|         384|   -8.905061|   -8.171569|   -9.930993|   -5.904344|
|         385|   -8.988192|   -8.184234|   -9.925500|   -5.904339|
|         386|   -9.086872|   -8.200087|   -9.923504|   -5.904334|
|         387|   -9.203115|   -8.219187|   -9.924888|   -5.904328|
|         388|   -9.329229|   -8.241616|   -9.929568|   -5.904323|
|         389|   -9.418546|   -8.267479|   -9.937494|   -5.904318|
|         390|   -9.396094|   -8.296895|   -9.948660|   -5.904313|
|         391|   -9.296015|   -8.329982|   -9.963079|   -5.904308|
|         392|   -9.190487|   -8.366834|   -9.980804|   -5.904304|
|         393|   -9.101196|   -8.407461|  -10.001918|   -5.904300|
|         394|   -9.028802|   -8.451692|  -10.026538|   -5.904296|
|         395|   -8.970395|   -8.498996|  -10.054810|   -5.904292|
|         396|   -8.923228|   -8.548171|  -10.086908|   -5.904289|
|         397|   -8.885202|   -8.596906|  -10.123012|   -5.904286|
|         398|   -8.854781|   -8.641321|  -10.163281|   -5.904284|
|         399|   -8.830839|   -8.676042|  -10.207781|   -5.904282|
|         400|   -8.812547|   -8.695643|  -10.256355|   -5.904280|
|         401|   -8.799290|   -8.697438|  -10.308362|   -5.904279|
|         402|   -8.790610|   -8.683284|  -10.362216|   -5.904278|
|         403|   -8.786172|   -8.658304|  -10.414697|   -5.904277|
|         404|   -8.785736|   -8.628052|  -10.460313|   -5.904277|
|         405|   -8.789139|   -8.596734|  -10.491791|   -5.904277|
|         406|   -8.796289|   -8.566939|  -10.503068|   -5.904277|
|         407|   -8.807154|   -8.540045|  -10.493431|   -5.904278|
|         408|   -8.821765|   -8.516685|  -10.468087|   -5.904279|
|         409|   -8.840211|   -8.497085|  -10.434399|   -5.904281|
|         410|   -8.862654|   -8.481259|  -10.398363|   -5.904282|
|         411|   -8.889332|   -8.469125|  -10.363661|   -5.904284|
|         412|   -8.920580|   -8.460568|  -10.332169|   -5.904286|
|         413|   -8.956856|   -8.455467|  -10.304690|   -5.904289|
|         414|   -8.998775|   -8.453716|  -10.281460|   -5.904291|
|         415|   -9.047170|   -8.455228|  -10.262448|   -5.904294|
|         416|   -9.103172|   -8.459940|  -10.247509|   -5.904296|
|         417|   -9.168333|   -8.467817|  -10.236463|   -5.904299|
|         418|   -9.244782|   -8.478848|  -10.229135|   -5.904302|
|         419|   -9.335341|   -8.493052|  -10.225370|   -5.904304|
|         420|   -9.443106|   -8.510470|  -10.225043|   -5.904307|
|         421|   -9.567892|   -8.531173|  -10.228058|   -5.904310|
|         422|   -9.688742|   -8.555253|  -10.234352|   -5.904313|
|         423|   -9.731736|   -8.582821|  -10.243904|   -5.904315|
|         424|   -9.659300|   -8.613997|  -10.256708|   -5.904318|
|         425|   -9.549148|   -8.648889|  -10.272814|   -5.904320|
|         426|   -9.449512|   -8.687556|  -10.292282|   -5.904322|
|         427|   -9.367956|   -8.729935|  -10.315214|   -5.904325|
|         428|   -9.302250|   -8.775705|  -10.341746|   -5.904326|
|         429|   -9.249283|   -8.824050|  -10.372041|   -5.904328|
|         430|   -9.206553|   -8.873291|  -10.406285|   -5.904330|
|         431|   -9.172218|   -8.920398|  -10.444661|   -5.904331|
|         432|   -9.144936|   -8.960703|  -10.487303|   -5.904333|
|         433|   -9.123726|   -8.988548|  -10.534208|   -5.904334|
|         434|   -9.107862|   -8.999509|  -10.585044|   -5.904335|
|         435|   -9.096807|   -8.993073|  -10.638800|   -5.904335|
|         436|   -9.090164|   -8.972995|  -10.693193|   -5.904336|
|         437|   -9.087643|   -8.944906|  -10.743888|   -5.904336|
|         438|   -9.089043|   -8.913798|  -10.784170|   -5.904336|
|         439|   -9.094235|   -8.883052|  -10.806586|   -5.904336|
|         440|   -9.103157|   -8.854603|  -10.807133|   -5.904336|
|         441|   -9.115807|   -8.829420|  -10.788368|   -5.904336|
|         442|   -9.132242|   -8.807907|  -10.757360|   -5.904335|
|         443|   -9.152589|   -8.790170|  -10.721261|   -5.904334|
|         444|   -9.177042|   -8.776170|  -10.684992|   -5.904334|
|         445|   -9.205885|   -8.765804|  -10.651258|   -5.904333|
|         446|   -9.239508|   -8.758953|  -10.621313|   -5.904332|
|         447|   -9.278439|   -8.755504|  -10.595611|   -5.904331|
|         448|   -9.323389|   -8.755359|  -10.574213|   -5.904329|
|         449|   -9.375321|   -8.758443|  -10.557005|   -5.904328|
|         450|   -9.435548|   -8.764708|  -10.543812|   -5.904327|
|         451|   -9.505866|   -8.774131|  -10.534445|   -5.904326|
|         452|   -9.588708|   -8.786715|  -10.528734|   -5.904324|
|         453|   -9.687084|   -8.802491|  -10.526537|   -5.904323|
|         454|   -9.803173|   -8.821515|  -10.527739|   -5.904322|
|         455|   -9.929989|   -8.843868|  -10.532261|   -5.904320|
|         456|  -10.022331|   -8.869654|  -10.540052|   -5.904319|
|         457|  -10.003200|   -8.898991|  -10.551110|   -5.904318|
|         458|   -9.903466|   -8.931997|  -10.565445|   -5.904317|
|         459|   -9.797177|   -8.968765|  -10.583109|   -5.904316|
|         460|   -9.707143|   -9.009312|  -10.604185|   -5.904315|
|         461|   -9.634176|   -9.053473|  -10.628787|   -5.904314|
|         462|   -9.575334|   -9.100730|  -10.657061|   -5.904313|
|         463|   -9.527827|   -9.149911|  -10.689175|   -5.904312|
|         464|   -9.489526|   -9.198743|  -10.725311|   -5.904311|
|         465|   -9.458874|   -9.243393|  -10.765626|   -5.904311|
|         466|   -9.434731|   -9.278512|  -10.810190|   -5.904310|
|         467|   -9.416258|   -9.298631|  -10.858854|   -5.904310|
|         468|   -9.402835|   -9.300938|  -10.910992|   -5.904309|
|         469|   -9.394001|   -9.287160|  -10.965051|   -5.904309|
|         470|   -9.389415|   -9.262373|  -11.017850|   -5.904309|
|         471|   -9.388836|   -9.232162|  -11.063930|   -5.904309|
|         472|   -9.392101|   -9.200788|  -11.095990|   -5.904309|
|         473|   -9.399115|   -9.170883|  -11.107838|   -5.904309|
|         474|   -9.409845|   -9.143854|  -11.098597|   -5.904309|
|         475|   -9.424320|   -9.120353|  -11.073410|   -5.904309|
|         476|   -9.442629|   -9.100611|  -11.039688|   -5.904310|
|         477|   -9.464932|   -9.084647|  -11.003506|   -5.904310|
|         478|   -9.491465|   -9.072383|  -10.968604|   -5.904310|
|         479|   -9.522561|   -9.063702|  -10.936893|   -5.904311|
|         480|   -9.558672|   -9.058485|  -10.909188|   -5.904311|
|         481|   -9.600409|   -9.056623|  -10.885735|   -5.904312|
|         482|   -9.648598|   -9.058029|  -10.866503|   -5.904313|
|         483|   -9.704359|   -9.062641|  -10.851350|   -5.904313|
|         484|   -9.769229|   -9.070422|  -10.840097|   -5.904314|
|         485|   -9.845316|   -9.081360|  -10.832570|   -5.904315|
|         486|   -9.935420|   -9.095472|  -10.828614|   -5.904315|
|         487|  -10.042642|   -9.112800|  -10.828106|   -5.904316|
|         488|  -10.167005|   -9.133413|  -10.830951|   -5.904317|
|         489|  -10.288623|   -9.157403|  -10.837085|   -5.904317|
|         490|  -10.334978|   -9.184879|  -10.846487|   -5.904318|
|         491|  -10.265035|   -9.215963|  -10.859153|   -5.904319|
|         492|  -10.155089|   -9.250764|  -10.875131|   -5.904319|
|         493|  -10.055018|   -9.289344|  -10.894481|   -5.904320|
|         494|   -9.973003|   -9.331646|  -10.917303|   -5.904320|
|         495|   -9.906915|   -9.377361|  -10.943731|   -5.904321|
|         496|   -9.853639|   -9.425697|  -10.973927|   -5.904321|
|         497|   -9.810657|   -9.475010|  -11.008073|   -5.904322|
|         498|   -9.776109|   -9.522318|  -11.046350|   -5.904322|
|         499|   -9.748643|   -9.562996|  -11.088892|   -5.904322|
|         500|   -9.727269|   -9.591374|  -11.135698|   -5.904323|
|         501|   -9.711256|   -9.602926|  -11.186443|   -5.904323|
|         502|   -9.700063|   -9.596984|  -11.240138|   -5.904323|
|         503|   -9.693288|   -9.577208|  -11.294541|   -5.904323|
|         504|   -9.690640|   -9.549230|  -11.345386|   -5.904323|
|         505|   -9.691915|   -9.518100|  -11.386031|   -5.904323|
|         506|   -9.696985|   -9.487255|  -11.409019|   -5.904323|
|         507|   -9.705783|   -9.458671|  -11.410214|   -5.904323|
|         508|   -9.718307|   -9.433338|  -11.391982|   -5.904323|
|         509|   -9.734614|   -9.411673|  -11.361309|   -5.904323|
|         510|   -9.754827|   -9.393789|  -11.325367|   -5.904323|
|         511|   -9.779140|   -9.379647|  -11.289131|   -5.904323|
|         512|   -9.807833|   -9.369147|  -11.255356|   -5.904322|
|         513|   -9.841294|   -9.362169|  -11.225328|   -5.904322|
|         514|   -9.880046|   -9.358598|  -11.199518|   -5.904322|
|         515|   -9.924795|   -9.358337|  -11.178000|   -5.904322|
|         516|   -9.976495|   -9.361309|  -11.160666|   -5.904321|
|         517|  -10.036448|   -9.367465|  -11.147342|   -5.904321|
|         518|  -10.106439|   -9.376781|  -11.137844|   -5.904321|
|         519|  -10.188888|   -9.389259|  -11.132002|   -5.904320|
|         520|  -10.286817|   -9.404930|  -11.129675|   -5.904320|
|         521|  -10.402544|   -9.423848|  -11.130749|   -5.904320|
|         522|  -10.529782|   -9.446093|  -11.135146|   -5.904319|
|         523|  -10.625070|   -9.471769|  -11.142816|   -5.904319|
|         524|  -10.609796|   -9.500993|  -11.153755|   -5.904319|
|         525|  -10.510816|   -9.533883|  -11.167976|   -5.904318|
|         526|  -10.403874|   -9.570533|  -11.185530|   -5.904318|
|         527|  -10.313100|   -9.610963|  -11.206500|   -5.904318|
|         528|  -10.239540|   -9.655017|  -11.231000|   -5.904318|
|         529|  -10.180241|   -9.702192|  -11.259176|   -5.904317|
|         530|  -10.132376|   -9.751340|  -11.291196|   -5.904317|
|         531|  -10.093787|   -9.800233|  -11.327243|   -5.904317|
|         532|  -10.062895|   -9.845093|  -11.367476|   -5.904317|
|         533|  -10.038548|   -9.880607|  -11.411972|   -5.904317|
|         534|  -10.019897|   -9.901273|  -11.460592|   -5.904317|
|         535|  -10.006313|   -9.904151|  -11.512733|   -5.904316|
|         536|   -9.997331|   -9.890824|  -11.566879|   -5.904316|
|         537|   -9.992608|   -9.866305|  -11.619905|   -5.904316|
|         538|   -9.991897|   -9.836197|  -11.666408|   -5.904316|
|         539|   -9.995034|   -9.804814|  -11.699083|   -5.904316|
|         540|  -10.001921|   -9.774836|  -11.711606|   -5.904316|
|         541|  -10.012525|   -9.747702|  -11.702901|   -5.904316|
|         542|  -10.026871|   -9.724081|  -11.678003|   -5.904316|
|         543|  -10.045048|   -9.704216|  -11.644352|   -5.904317|
|         544|  -10.067212|   -9.688130|  -11.608105|   -5.904317|
|         545|  -10.093597|   -9.675745|  -11.573072|   -5.904317|
|         546|  -10.124533|   -9.666948|  -11.541203|   -5.904317|
|         547|  -10.160467|   -9.661618|  -11.513335|   -5.904317|
|         548|  -10.202006|   -9.659647|  -11.489721|   -5.904317|
|         549|  -10.249964|   -9.660947|  -11.470335|   -5.904317|
|         550|  -10.305453|   -9.665455|  -11.455033|   -5.904317|
|         551|  -10.369993|   -9.673133|  -11.443638|   -5.904318|
|         552|  -10.445667|   -9.683968|  -11.435973|   -5.904318|
|         553|  -10.535251|   -9.697978|  -11.431883|   -5.904318|
|         554|  -10.641850|   -9.715204|  -11.431244|   -5.904318|
|         555|  -10.765705|   -9.735712|  -11.433961|   -5.904318|
|         556|  -10.888091|   -9.759596|  -11.439969|   -5.904318|
|         557|  -10.938147|   -9.786964|  -11.449246|   -5.904319|
|         558|  -10.871103|   -9.817937|  -11.461787|   -5.904319|
|         559|  -10.761439|   -9.852626|  -11.477642|   -5.904319|
|         560|  -10.660884|   -9.891096|  -11.496869|   -5.904319|
|         561|  -10.578347|   -9.933296|  -11.519566|   -5.904319|
|         562|  -10.511823|   -9.978931|  -11.545868|   -5.904319|
|         563|  -10.458196|  -10.027229|  -11.575935|   -5.904319|
|         564|  -10.414929|  -10.076581|  -11.609949|   -5.904320|
|         565|  -10.380144|  -10.124058|  -11.648093|   -5.904320|
|         566|  -10.352476|  -10.165080|  -11.690501|   -5.904320|
|         567|  -10.330927|  -10.193979|  -11.737179|   -5.904320|
|         568|  -10.314757|  -10.206131|  -11.787815|   -5.904320|
|         569|  -10.303420|  -10.200716|  -11.841448|   -5.904320|
|         570|  -10.296513|  -10.181284|  -11.895883|   -5.904320|
|         571|  -10.293739|  -10.153460|  -11.946927|   -5.904320|
|         572|  -10.294894|  -10.122341|  -11.988004|   -5.904320|
|         573|  -10.299846|  -10.091425|  -12.011635|   -5.904320|
|         574|  -10.308527|  -10.062728|  -12.013515|   -5.904320|
|         575|  -10.320933|  -10.037264|  -11.995812|   -5.904320|
|         576|  -10.337119|  -10.015463|  -11.965429|   -5.904320|
|         577|  -10.357206|   -9.997445|  -11.929577|   -5.904320|
|         578|  -10.381386|   -9.983174|  -11.893312|   -5.904320|
|         579|  -10.409937|   -9.972549|  -11.859447|   -5.904320|
|         580|  -10.443243|   -9.965452|  -11.829301|   -5.904320|
|         581|  -10.481822|   -9.961766|  -11.803366|   -5.904320|
|         582|  -10.526375|   -9.961392|  -11.781720|   -5.904319|
|         583|  -10.577848|   -9.964256|  -11.764262|   -5.904319|
|         584|  -10.637531|   -9.970305|  -11.750817|   -5.904319|
|         585|  -10.707196|   -9.979516|  -11.741201|   -5.904319|
|         586|  -10.789246|   -9.991889|  -11.735245|   -5.904319|
|         587|  -10.886704|  -10.007453|  -11.732806|   -5.904319|
|         588|  -11.001993|  -10.026262|  -11.733771|   -5.904319|
|         589|  -11.129419|  -10.048397|  -11.738059|   -5.904319|
|         590|  -11.227200|  -10.073959|  -11.745621|   -5.904319|
|         591|  -11.215658|  -10.103065|  -11.756454|   -5.904319|
|         592|  -11.117640|  -10.135833|  -11.770568|   -5.904319|
|         593|  -11.010204|  -10.172360|  -11.788014|   -5.904319|
|         594|  -10.918784|  -10.212666|  -11.808876|   -5.904319|
|         595|  -10.844687|  -10.256603|  -11.833266|   -5.904318|
|         596|  -10.784967|  -10.303681|  -11.861331|   -5.904318|
|         597|  -10.736768|  -10.352780|  -11.893240|   -5.904318|
|         598|  -10.697908|  -10.401710|  -11.929175|   -5.904318|
|         599|  -10.666790|  -10.446748|  -11.969300|   -5.904318|
|         600|  -10.642249|  -10.482620|  -12.013696|   -5.904318|
|         601|  -10.623428|  -10.503798|  -12.062236|   -5.904318|
|         602|  -10.609693|  -10.507225|  -12.114340|   -5.904318|
|         603|  -10.600571|  -10.494345|  -12.168528|   -5.904318|
|         604|  -10.595717|  -10.470100|  -12.221734|   -5.904318|
|         605|  -10.594883|  -10.440107|  -12.268612|   -5.904318|
|         606|  -10.597899|  -10.408729|  -12.301862|   -5.904318|
|         607|  -10.604668|  -10.378692|  -12.315041|   -5.904318|
|         608|  -10.615154|  -10.351465|  -12.306870|   -5.904318|
|         609|  -10.629379|  -10.327737|  -12.282268|   -5.904318|
|         610|  -10.647431|  -10.307758|  -12.248696|   -5.904318|
|         611|  -10.669464|  -10.291558|  -12.212391|   -5.904318|
|         612|  -10.695709|  -10.279062|  -12.177233|   -5.904318|
|         613|  -10.726492|  -10.270156|  -12.145214|   -5.904318|
|         614|  -10.762257|  -10.264720|  -12.117191|   -5.904318|
|         615|  -10.803603|  -10.262646|  -12.093427|   -5.904318|
|         616|  -10.851339|  -10.263844|  -12.073898|   -5.904318|
|         617|  -10.906563|  -10.268251|  -12.058462|   -5.904318|
|         618|  -10.970780|  -10.275829|  -12.046939|   -5.904318|
|         619|  -11.046052|  -10.286564|  -12.039152|   -5.904319|
|         620|  -11.135130|  -10.300473|  -12.034946|   -5.904319|
|         621|  -11.241122|  -10.317595|  -12.034193|   -5.904319|
|         622|  -11.364475|  -10.337998|  -12.036799|   -5.904319|
|         623|  -11.487572|  -10.361773|  -12.042697|   -5.904319|
|         624|  -11.541229|  -10.389029|  -12.051863|   -5.904319|
|         625|  -11.477117|  -10.419886|  -12.064291|   -5.904319|
|         626|  -11.367755|  -10.454456|  -12.080032|   -5.904319|
|         627|  -11.266712|  -10.492808|  -12.099141|   -5.904319|
|         628|  -11.183645|  -10.534896|  -12.121716|   -5.904319|
|         629|  -11.116679|  -10.580434|  -12.147890|   -5.904319|
|         630|  -11.062696|  -10.628673|  -12.177823|   -5.904319|
|         631|  -11.019138|  -10.678039|  -12.211696|   -5.904319|
|         632|  -10.984112|  -10.725651|  -12.249690|   -5.904319|
|         633|  -10.956239|  -10.766983|  -12.291945|   -5.904319|
|         634|  -10.934510|  -10.796372|  -12.338469|   -5.904319|
|         635|  -10.918181|  -10.809114|  -12.388965|   -5.904319|
|         636|  -10.906699|  -10.804233|  -12.442499|   -5.904319|
|         637|  -10.899656|  -10.785166|  -12.496930|   -5.904319|
|         638|  -10.896756|  -10.757520|  -12.548143|   -5.904319|
|         639|  -10.897788|  -10.726437|  -12.589640|   -5.904319|
|         640|  -10.902619|  -10.695470|  -12.613931|   -5.904319|
|         641|  -10.911181|  -10.666675|  -12.616544|   -5.904319|
|         642|  -10.923467|  -10.641094|  -12.599427|   -5.904319|
|         643|  -10.939529|  -10.619168|  -12.569383|   -5.904319|
|         644|  -10.959487|  -10.601024|  -12.533662|   -5.904319|
|         645|  -10.983530|  -10.586631|  -12.497391|   -5.904319|
|         646|  -11.011934|  -10.575888|  -12.463450|   -5.904319|
|         647|  -11.045077|  -10.568676|  -12.433195|   -5.904319|
|         648|  -11.083474|  -10.564879|  -12.407137|   -5.904319|
|         649|  -11.127818|  -10.564399|  -12.385367|   -5.904319|
|         650|  -11.179047|  -10.567157|  -12.367786|   -5.904319|
|         651|  -11.238438|  -10.573103|  -12.354223|   -5.904319|
|         652|  -11.307745|  -10.582209|  -12.344494|   -5.904319|
|         653|  -11.389351|  -10.594478|  -12.338428|   -5.904319|
|         654|  -11.486272|  -10.609937|  -12.335881|   -5.904319|
|         655|  -11.601021|  -10.628640|  -12.336741|   -5.904319|
|         656|  -11.728497|  -10.650665|  -12.340927|   -5.904319|
|         657|  -11.828745|  -10.676113|  -12.348385|   -5.904319|
|         658|  -11.821344|  -10.705101|  -12.359116|   -5.904319|
|         659|  -11.724607|  -10.737747|  -12.373125|   -5.904319|
|         660|  -11.616749|  -10.774150|  -12.390466|   -5.904319|
|         661|  -11.524678|  -10.814333|  -12.411234|   -5.904319|
|         662|  -11.450022|  -10.858156|  -12.435544|   -5.904319|
|         663|  -11.389859|  -10.905145|  -12.463526|   -5.904319|
|         664|  -11.341307|  -10.954205|  -12.495343|   -5.904319|
|         665|  -11.302160|  -11.003188|  -12.531180|   -5.904319|
|         666|  -11.270804|  -11.048427|  -12.571205|   -5.904319|
|         667|  -11.246059|  -11.084685|  -12.615509|   -5.904319|
|         668|  -11.227059|  -11.106407|  -12.663976|   -5.904319|
|         669|  -11.213163|  -11.110412|  -12.716051|   -5.904319|
|         670|  -11.203896|  -11.097997|  -12.770295|   -5.904319|
|         671|  -11.198907|  -11.074031|  -12.823700|   -5.904319|
|         672|  -11.197944|  -11.044150|  -12.870985|   -5.904319|
|         673|  -11.200838|  -11.012769|  -12.904848|   -5.904319|
|         674|  -11.207486|  -10.982663|  -12.918717|   -5.904319|
|         675|  -11.217851|  -10.955334|  -12.911099|   -5.904319|
|         676|  -11.231955|  -10.931488|  -12.886790|   -5.904319|
|         677|  -11.249882|  -10.911388|  -12.853278|   -5.904319|
|         678|  -11.271784|  -10.895068|  -12.816890|   -5.904319|
|         679|  -11.297890|  -10.882455|  -12.781580|   -5.904319|
|         680|  -11.328522|  -10.873436|  -12.749386|   -5.904319|
|         681|  -11.364119|  -10.867890|  -12.721186|   -5.904319|
|         682|  -11.405277|  -10.865709|  -12.697254|   -5.904319|
|         683|  -11.452795|  -10.866803|  -12.677566|   -5.904319|
|         684|  -11.507760|  -10.871108|  -12.661983|   -5.904319|
|         685|  -11.571663|  -10.878584|  -12.650322|   -5.904319|
|         686|  -11.646545|  -10.889218|  -12.642405|   -5.904319|
|         687|  -11.735131|  -10.903024|  -12.638074|   -5.904319|
|         688|  -11.840534|  -10.920042|  -12.637202|   -5.904319|
|         689|  -11.963394|  -10.940339|  -12.639692|   -5.904319|
|         690|  -12.087136|  -10.964003|  -12.645476|   -5.904319|
|         691|  -12.144257|  -10.991146|  -12.654527|   -5.904319|
|         692|  -12.083093|  -11.021886|  -12.666841|   -5.904319|
|         693|  -11.974062|  -11.056336|  -12.682465|   -5.904319|
|         694|  -11.872537|  -11.094567|  -12.701454|   -5.904319|
|         695|  -11.788943|  -11.136538|  -12.723904|   -5.904319|
|         696|  -11.721536|  -11.181975|  -12.749945|   -5.904319|
|         697|  -11.667198|  -11.230148|  -12.779738|   -5.904319|
|         698|  -11.623351|  -11.279515|  -12.813463|   -5.904319|
|         699|  -11.588085|  -11.327246|  -12.851298|   -5.904319|
|         700|  -11.560007|  -11.368866|  -12.893385|   -5.904319|
|         701|  -11.538099|  -11.398724|  -12.939738|   -5.904319|
|         702|  -11.521611|  -11.412038|  -12.990072|   -5.904319|
|         703|  -11.509984|  -11.407686|  -13.043477|   -5.904319|
|         704|  -11.502807|  -11.388987|  -13.097860|   -5.904319|
|         705|  -11.499779|  -11.361526|  -13.149189|   -5.904319|
|         706|  -11.500689|  -11.330488|  -13.191053|   -5.904319|
|         707|  -11.505402|  -11.299477|  -13.215975|   -5.904319|
|         708|  -11.513845|  -11.270591|  -13.219321|   -5.904319|
|         709|  -11.526011|  -11.244896|  -13.202822|   -5.904319|
|         710|  -11.541951|  -11.222850|  -13.173163|   -5.904319|
|         711|  -11.561781|  -11.204584|  -13.137610|   -5.904319|
|         712|  -11.585688|  -11.190071|  -13.101369|   -5.904319|
|         713|  -11.613945|  -11.179213|  -13.067375|   -5.904319|
|         714|  -11.646928|  -11.171889|  -13.037027|   -5.904319|
|         715|  -11.685144|  -11.167984|  -13.010862|   -5.904319|
|         716|  -11.729282|  -11.167398|  -12.988978|   -5.904319|
|         717|  -11.780269|  -11.170053|  -12.971283|   -5.904319|
|         718|  -11.839370|  -11.175897|  -12.957609|   -5.904319|
|         719|  -11.908322|  -11.184901|  -12.947769|   -5.904319|
|         720|  -11.989487|  -11.197068|  -12.941597|   -5.904319|
|         721|  -12.085869|  -11.212423|  -12.938950|   -5.904319|
|         722|  -12.200060|  -11.231020|  -12.939709|   -5.904319|
|         723|  -12.327505|  -11.252936|  -12.943796|   -5.904319|
|         724|  -12.430045|  -11.278272|  -12.951157|   -5.904319|
|         725|  -12.426791|  -11.307143|  -12.961789|   -5.904319|
|         726|  -12.331465|  -11.339669|  -12.975700|   -5.904319|
|         727|  -12.223242|  -11.375949|  -12.992939|   -5.904319|
|         728|  -12.130539|  -11.416010|  -13.013588|   -5.904319|
|         729|  -12.055333|  -11.459719|  -13.037761|   -5.904319|
|         730|  -11.994731|  -11.506616|  -13.065599|   -5.904319|
|         731|  -11.945829|  -11.555632|  -13.097277|   -5.904319|
|         732|  -11.906397|  -11.604662|  -13.132973|   -5.904319|
|         733|  -11.874802|  -11.650091|  -13.172858|   -5.904319|
|         734|  -11.849853|  -11.686726|  -13.217025|   -5.904319|
|         735|  -11.830675|  -11.708986|  -13.265368|   -5.904319|
|         736|  -11.816620|  -11.713569|  -13.317348|   -5.904319|
|         737|  -11.807207|  -11.701622|  -13.371572|   -5.904319|
|         738|  -11.802083|  -11.677943|  -13.425088|   -5.904319|
|         739|  -11.800992|  -11.648179|  -13.472696|   -5.904319|
|         740|  -11.803762|  -11.616798|  -13.507135|   -5.904319|
|         741|  -11.810290|  -11.586625|  -13.521725|   -5.904319|
|         742|  -11.820535|  -11.559194|  -13.514759|   -5.904319|
|         743|  -11.834517|  -11.535232|  -13.490869|   -5.904319|
|         744|  -11.852320|  -11.515011|  -13.457533|   -5.904319|
|         745|  -11.874091|  -11.498571|  -13.421161|   -5.904319|
|         746|  -11.900058|  -11.485842|  -13.385767|   -5.904319|
|         747|  -11.930540|  -11.476709|  -13.353447|   -5.904319|
|         748|  -11.965971|  -11.471054|  -13.325107|   -5.904319|
|         749|  -12.006940|  -11.468767|  -13.301031|   -5.904319|
|         750|  -12.054240|  -11.469757|  -13.281209|   -5.904319|
|         751|  -12.108949|  -11.473960|  -13.265493|   -5.904319|
|         752|  -12.172539|  -11.481334|  -13.253706|   -5.904319|
|         753|  -12.247032|  -11.491867|  -13.245671|   -5.904319|
|         754|  -12.335131|  -11.505570|  -13.241227|   -5.904319|
|         755|  -12.439950|  -11.522485|  -13.240247|   -5.904319|
|         756|  -12.562314|  -11.542675|  -13.242626|   -5.904319|
|         757|  -12.686661|  -11.566230|  -13.248306|   -5.904319|
|         758|  -12.747218|  -11.593259|  -13.257256|   -5.904319|
|         759|  -12.689097|  -11.623882|  -13.269463|   -5.904319|
|         760|  -12.580435|  -11.658212|  -13.284979|   -5.904319|
|         761|  -12.478422|  -11.696321|  -13.303856|   -5.904319|
|         762|  -12.394288|  -11.738176|  -13.326195|   -5.904319|
|         763|  -12.326431|  -11.783510|  -13.352117|   -5.904319|
|         764|  -12.271731|  -11.831614|  -13.381790|   -5.904319|
|         765|  -12.227590|  -11.880981|  -13.415385|   -5.904319|
|         766|  -12.192079|  -11.928826|  -13.453081|   -5.904319|
|         767|  -12.163793|  -11.970728|  -13.495032|   -5.904319|
|         768|  -12.141704|  -12.001050|  -13.541247|   -5.904319|

----------------------------- Solver Exit -------------------------------
All convergence criteria satisfied.
+-----------------------------------------------------------------------+
|      Convergence Field     |     Value    |   Criterion  |  Converged |
+-----------------------------------------------------------------------+
|                      rms[P]|      -12.1417|         < -12|         Yes|
|                      rms[U]|      -12.0011|         < -12|         Yes|
|                      rms[V]|      -13.5412|         < -12|         Yes|
|                      rms[k]|      -13.1759|         < -12|         Yes|
+-----------------------------------------------------------------------+
-------------------------------------------------------------------------
+-----------------------------------------------------------------------+
|        File Writing Summary       |              Filename             |
+-----------------------------------------------------------------------+
|SU2 restart                        |restart_verification_mixtureviscosity_smallbox_turb.dat|
|                                   |                     (1.25317 MB/s)|
|Paraview                           |flow_verification_mixtureviscosity_smallbox_turb_00000768.vtu|
|                                   |                   (0.0443082 MB/s)|
|Paraview surface                   |surface_verification_mixtureviscosity_smallbox_turb.vtu|
|                                   |                     (1.46313 MB/s)|
+-----------------------------------------------------------------------+

------------------------- Solver Postprocessing -------------------------
Deleted CNumerics container.
Deleted CIntegration container.
Deleted CSolver container.
Deleted CIteration container.
Deleted CInterface container.
Deleted CGeometry container.
Deleted CFreeFormDefBox class.
Deleted CSurfaceMovement class.
Deleted CVolumetricMovement class.
Deleted CConfig container.
Deleted nInst container.
Deleted COutput class.
-------------------------------------------------------------------------


-------------------------- Performance Summary --------------------------
Simulation totals:
   Wall-clock time (hrs):  0.00477879 |            Core-hrs:    0.334516
                   Cores:          70 |          DOFs/point:           7
             Points/core:     5.42857 |   Ghost points/core:        13.3
 Ghost/Owned Point Ratio:        2.45 | 

Preprocessing phase:
       Preproc. Time (s):   0.0744016 |   Preproc. Time (%):    0.432476

Compute phase:
        Compute Time (s):     9.85697 |    Compute Time (%):     57.2958
         Iteration count:         769 |         Avg. s/iter:   0.0128179
     Core-s/iter/Mpoints:     684.404 |           Mpoints/s:    0.102279

Output phase:
         Output Time (s):     7.27229 |     Output Time (%):     42.2718
            Output count:           1 |       Avg. s/output:     7.27229
 Restart Aggr. BW (MB/s):     1.25317 |           MB/s/core:   0.0179025
-------------------------------------------------------------------------


------------------------- Exit Success (SU2_CFD) ------------------------

