scsub> Executing:  'cd /home/hem1dev/Codes/SU2_Github_Mark_Test/SU2/Venturi'


WARNING: CONV_CRITERIA is deprecated. SU2 will choose the criteria automatically based on the CONV_FIELD.
That is, RESIDUAL for any RMS_* BGS_* value, and CAUCHY for coefficients such as DRAG etc.


-------------------------------------------------------------------------
|    ___ _   _ ___                                                      |
|   / __| | | |_  )   Release 7.1.1 "Blackbird"                         |
|   \__ \ |_| |/ /                                                      |
|   |___/\___//___|   Suite (Computational Fluid Dynamics Code)         |
|                                                                       |
-------------------------------------------------------------------------
| SU2 Project Website: https://su2code.github.io                        |
|                                                                       |
| The SU2 Project is maintained by the SU2 Foundation                   |
| (http://su2foundation.org)                                            |
-------------------------------------------------------------------------
| Copyright 2012-2021, SU2 Contributors                                 |
|                                                                       |
| SU2 is free software; you can redistribute it and/or                  |
| modify it under the terms of the GNU Lesser General Public            |
| License as published by the Free Software Foundation; either          |
| version 2.1 of the License, or (at your option) any later version.    |
|                                                                       |
| SU2 is distributed in the hope that it will be useful,                |
| but WITHOUT ANY WARRANTY; without even the implied warranty of        |
| MERCHANTABILITY or FITNESS FOR A PARTICULAR PURPOSE. See the GNU      |
| Lesser General Public License for more details.                       |
|                                                                       |
| You should have received a copy of the GNU Lesser General Public      |
| License along with SU2. If not, see <http://www.gnu.org/licenses/>.   |
-------------------------------------------------------------------------


WARNING: CONV_CRITERIA is deprecated. SU2 will choose the criteria automatically based on the CONV_FIELD.
That is, RESIDUAL for any RMS_* BGS_* value, and CAUCHY for coefficients such as DRAG etc.


Parsing config file for zone 0


WARNING: CONV_CRITERIA is deprecated. SU2 will choose the criteria automatically based on the CONV_FIELD.
That is, RESIDUAL for any RMS_* BGS_* value, and CAUCHY for coefficients such as DRAG etc.


----------------- Physical Case Definition ( Zone 0 ) -------------------
Incompressible RANS equations.
Turbulence model: Menter's SST
Hybrid RANS/LES: No Hybrid RANS/LES
No restart solution, use the values at infinity (freestream).
Dimensional simulation.
The reference area is 1 m^2.
The semi-span will be computed using the max y(3D) value.
The reference length is 1 m.
Input mesh file name: c6_cms_venturi.cgns

--------------- Space Numerical Integration ( Zone 0 ) ------------------
Flux difference splitting (FDS) upwind scheme for the flow inviscid terms.
Second order integration in space, with slope limiter.
No slope-limiting method. 
Average of gradients with correction (viscous flow terms).
Average of gradients with correction (viscous turbulence terms).
Gradient for upwind reconstruction: inverse-distance weighted Least-Squares.
Gradient for viscous and source terms: inverse-distance weighted Least-Squares.

--------------- Time Numerical Integration  ( Zone 0 ) ------------------
Local time stepping (steady state simulation).
Euler implicit method for the flow equations.
FGMRES is used for solving the linear system.
Using a ILU(0) preconditioning.
Convergence criteria of the linear solver: 1e-08.
Max number of linear iterations: 20.
No CFL adaptation.
Courant-Friedrichs-Lewy number:      100
Euler implicit time integration for the turbulence model.

------------------ Convergence Criteria  ( Zone 0 ) ---------------------
Maximum number of solver subiterations: 50000.
Begin convergence monitoring at iteration 10.
Residual minimum value: 1e-10.
Cauchy series min. value: 1e-06.
Number of Cauchy elements: 100.
Begin windowed time average at iteration 0.

-------------------- Output Information ( Zone 0 ) ----------------------
Writing solution files every 5000 iterations.
Writing the convergence history file every 1 inner iterations.
Writing the screen convergence history every 1 inner iterations.
The tabular file format is CSV (.csv).
Convergence history file name: history_test.
Forces breakdown file name: forces_breakdown.dat.
Surface file name: surface_flow_venturi_mixturedensity_30kW_fine_test.
Volume file name: flow_venturi_mixturedensity_30kW_fine_test.
Restart file name: restart_venturi_mixturedensity_30kW_fine_test.dat.

------------- Config File Boundary Information ( Zone 0 ) ---------------
+-----------------------------------------------------------------------+
|                        Marker Type|                        Marker Name|
+-----------------------------------------------------------------------+
|                     Symmetry plane|                               axis|
+-----------------------------------------------------------------------+
|                     Inlet boundary|                          gas_inlet|
|                                   |                          air_inlet|
+-----------------------------------------------------------------------+
|                    Outlet boundary|                             outlet|
+-----------------------------------------------------------------------+
|                     Heat flux wall|            wall-component1-surface|
+-----------------------------------------------------------------------+

-------------------- Output Preprocessing ( Zone 0 ) --------------------
Screen output fields: INNER_ITER, RMS_PRESSURE, RMS_VELOCITY-X, RMS_VELOCITY-Y, RMS_PASSIVE_SCALAR
History output group(s): RMS_RES, AERO_COEFF, FLOW_COEFF
Convergence field(s): RMS_PRESSURE, RMS_VELOCITY-X, RMS_VELOCITY-Y, RMS_TKE
Warning: No (valid) fields chosen for time convergence monitoring. Time convergence monitoring inactive.
  Info: Ignoring the following volume output fields/groups:
  SOURCE, LOOKUP
Volume output fields: DENSITY, SOLUTION, PRIMITIVE, RESIDUAL, COORDINATES

------------------- Geometry Preprocessing ( Zone 0 ) -------------------
Reading the CGNS file: c6_cms_venturi.cgns.
CGNS file contains 1 database(s).
Database 1, Base:  cell dimension of 2, physical dimension of 2.
1 total zone(s).
Zone 1, Zone: 292948 total vertices, 295883 total elements.
Loading CoordinateX values into linear partitions.
Loading CoordinateY values into linear partitions.
Distributing connectivity across all ranks.
Number of connectivity sections is 6.
Section gas_inlet contains 51 elements of type Mixed.
Section air_inlet contains 150 elements of type Mixed.
Section outlet contains 157 elements of type Mixed.
Section axis contains 1721 elements of type Mixed.
Section component1-surface contains 290183 elements of type Mixed.
Section wall-component1-surface contains 3621 elements of type Mixed.
Loading surface section gas_inlet from file.
Loading surface section air_inlet from file.
Loading surface section outlet from file.
Loading surface section axis from file.
Loading volume section component1-surface from file.
Loading surface section wall-component1-surface from file.
Two dimensional problem.
292948 grid points before partitioning.
290183 volume elements before partitioning.
5 surface markers.
51 boundary elements in index 0 (Marker = gas_inlet).
150 boundary elements in index 1 (Marker = air_inlet).
157 boundary elements in index 2 (Marker = outlet).
1721 boundary elements in index 3 (Marker = axis).
3621 boundary elements in index 4 (Marker = wall-component1-surface).
Executing the partitioning functions.
Building the graph adjacency structure.
Calling ParMETIS... graph partitioning complete (13662 edge cuts).
Distributing ParMETIS coloring.
Rebalancing vertices.
Rebalancing volume element connectivity.
Rebalancing markers and surface elements.
320617 vertices including ghost points. 
303881 interior elements including halo cells. 
174 triangles.
303707 quadrilaterals.
Establishing MPI communication patterns.
Setting point connectivity.
Renumbering points (Reverse Cuthill McKee Ordering).
Recomputing point connectivity.
Setting element connectivity.
Checking the numerical grid orientation.
All volume elements are correctly orientend.
All surface elements are correctly orientend.
Identifying edges and vertices.
Setting the control volume structure.
Area of the computational grid: 0.00286004.
Searching for the closest normal neighbors to the surfaces.
Storing a mapping from global to local point index.
Compute the surface curvature.
Max K: 25766.3. Mean K: 66.0693. Standard deviation K: 1007.76.
Checking for periodicity.
Computing mesh quality statistics for the dual control volumes.
+--------------------------------------------------------------+
|           Mesh Quality Metric|        Minimum|        Maximum|
+--------------------------------------------------------------+
|    Orthogonality Angle (deg.)|        45.2115|             90|
|     CV Face Area Aspect Ratio|              1|        10.3208|
|           CV Sub-Volume Ratio|              1|        9.85984|
+--------------------------------------------------------------+
Finding max control volume width.
Communicating number of neighbors.
Wetted area = 0 m.
Area projection in the x-plane = 0 m, y-plane = 0 m.
Max. coordinate in the x-direction = -1e+10 m, y-direction = -1e+10 m.
Min. coordinate in the x-direction = 1e+10 m, y-direction = 1e+10 m.
Checking if Euler & Symmetry markers are straight/plane:
Boundary marker axis is a single straight.
Computing wall distances.

-------------------- Solver Preprocessing ( Zone 0 ) --------------------
Incompressible flow: rho_ref, vel_ref, temp_ref, p_ref
are set to 1.0 in order to perform a dimensional calculation.
Force coefficients computed using initial values.
The reference area for force coeffs. is 1 m^2.
The reference length for force coeffs. is 1 m.
The pressure is decomposed into thermodynamic and dynamic components.
The initial value of the dynamic pressure is 0.
Mach number: 0, computed using fluid speed of sound.
For external flows, the initial state is imposed at the far-field.
Angle of attack (deg): 0, computed using the initial velocity.
Side slip angle (deg): 0, computed using the initial velocity.
Reynolds number per meter: 66852.4, computed using initial values.
Reynolds number is a byproduct of inputs only (not used internally).
SI units only. The grid should be dimensional (meters).
Energy equation is active and coupled for variable density.

-- Models:
+------------------------------------------------------------------------------+
|          Viscosity Model|        Conductivity Model|              Fluid Model|
+------------------------------------------------------------------------------+
|       CONSTANT_VISCOSITY|          CONSTANT_PRANDTL|+------------------------------------------------------------------------------+
-- Fluid properties:
+------------------------------------------------------------------------------+
|                  Name|    Dim. value|    Ref. value|      Unit|Non-dim. value|
+------------------------------------------------------------------------------+
|             Viscosity|     1.716e-05|             1|   N.s/m^2|     1.716e-05|
+------------------------------------------------------------------------------+
|        Prandtl (Lam.)|             -|             -|         -|          0.72|
|       Prandtl (Turb.)|             -|             -|         -|           0.9|
+------------------------------------------------------------------------------+
-- Initial and free-stream conditions:
+------------------------------------------------------------------------------+
|                  Name|    Dim. value|    Ref. value|      Unit|Non-dim. value|
+------------------------------------------------------------------------------+
|      Dynamic Pressure|             0|             1|        Pa|             0|
|        Total Pressure|           0.6|             1|        Pa|           0.6|
|               Density|           1.2|             1|    kg/m^3|           1.2|
|           Temperature|           300|             1|         K|           300|
|            Velocity-X|             1|             1|       m/s|             1|
|            Velocity-Y|             0|             1|       m/s|             0|
|    Velocity Magnitude|             1|             1|       m/s|             1|
+------------------------------------------------------------------------------+
|             Viscosity|     1.795e-05|             1|   N.s/m^2|     1.795e-05|
|          Conductivity|             -|             1|   W/m^2.K|             -|
|     Turb. Kin. Energy|       0.00375|             1|   m^2/s^2|       0.00375|
|     Spec. Dissipation|       25.0696|             1|       1/s|       25.0696|
+------------------------------------------------------------------------------+
|           Mach Number|             -|             -|         -|             0|
|       Reynolds Number|             -|             -|         -|       66852.4|
+------------------------------------------------------------------------------+
Initialize Jacobian structure (Navier-Stokes). MG level: 0.
Initialize Jacobian structure (passive scalar model).
Initialize Jacobian structure (SST model).

------------------- Numerics Preprocessing ( Zone 0 ) -------------------

----------------- Integration Preprocessing ( Zone 0 ) ------------------

------------------- Iteration Preprocessing ( Zone 0 ) ------------------
Euler/Navier-Stokes/RANS fluid iteration.

------------------------------ Begin Solver -----------------------------

Simulation Run using the Single-zone Driver
Initializing passive scalar (initial condition).
initialization = 1 1
+----------------------------------------------------------------+
|  Inner_Iter|      rms[P]|      rms[U]|      rms[V]|      rms[c]|
+----------------------------------------------------------------+
|           0|   -4.994576|   -4.724955|   -4.242379|   -5.596602|
|           1|   -5.013671|   -4.759952|   -4.081004|   -5.210767|
|           2|   -5.474565|   -4.629802|   -4.166100|   -5.339396|
|           3|   -5.596123|   -4.789651|   -4.167391|   -5.466178|
|           4|   -5.690520|   -4.886815|   -4.272717|   -5.518081|
|           5|   -5.669520|   -4.938197|   -4.465197|   -5.547058|
|           6|   -5.768706|   -4.907235|   -4.732125|   -5.590086|
|           7|   -5.794969|   -4.860502|   -4.861424|   -5.653324|
|           8|   -5.820594|   -4.829058|   -4.791544|   -5.718427|
|           9|   -5.802952|   -4.813182|   -4.606288|   -5.760254|
|          10|   -5.748904|   -4.800971|   -4.431195|   -5.772960|
|          11|   -5.717425|   -4.789943|   -4.340474|   -5.766903|
|          12|   -5.728271|   -4.779137|   -4.321247|   -5.750287|
|          13|   -5.765557|   -4.767597|   -4.341537|   -5.733497|
|          14|   -5.809981|   -4.752727|   -4.381198|   -5.721294|
|          15|   -5.850069|   -4.732515|   -4.424659|   -5.715155|
|          16|   -5.882237|   -4.708007|   -4.457883|   -5.712070|
|          17|   -5.904734|   -4.682111|   -4.471484|   -5.710529|
|          18|   -5.918314|   -4.657212|   -4.465366|   -5.708755|
|          19|   -5.926145|   -4.634387|   -4.447863|   -5.705646|
|          20|   -5.932389|   -4.613720|   -4.428661|   -5.700958|
|          21|   -5.940044|   -4.594811|   -4.413935|   -5.694851|
|          22|   -5.950197|   -4.577349|   -4.405800|   -5.687752|
|          23|   -5.962407|   -4.561039|   -4.403332|   -5.680106|
|          24|   -5.975358|   -4.545699|   -4.403450|   -5.672514|
|          25|   -5.987804|   -4.531139|   -4.405139|   -5.665109|
|          26|   -5.999169|   -4.517272|   -4.406816|   -5.657903|
|          27|   -6.009158|   -4.504090|   -4.407822|   -5.650984|
|          28|   -6.017987|   -4.491613|   -4.408323|   -5.644397|
|          29|   -6.026015|   -4.479893|   -4.408762|   -5.638201|
|          30|   -6.033514|   -4.468983|   -4.409688|   -5.632401|
|          31|   -6.040679|   -4.458901|   -4.410845|   -5.626949|
|          32|   -6.047582|   -4.449572|   -4.410874|   -5.621828|
|          33|   -6.054144|   -4.440940|   -4.411452|   -5.617014|
|          34|   -6.060276|   -4.432903|   -4.412968|   -5.612482|
|          35|   -6.065946|   -4.425362|   -4.415193|   -5.608196|
|          36|   -6.071176|   -4.418303|   -4.418221|   -5.604100|
|          37|   -6.076000|   -4.411708|   -4.421726|   -5.600135|
|          38|   -6.080353|   -4.405524|   -4.424926|   -5.596264|
|          39|   -6.083284|   -4.399542|   -4.428009|   -5.592275|
|          40|   -6.084861|   -4.393582|   -4.430421|   -5.588279|
|          41|   -6.087632|   -4.388137|   -4.432072|   -5.584710|
|          42|   -6.091018|   -4.383620|   -4.433304|   -5.580943|
|          43|   -6.095020|   -4.379574|   -4.434218|   -5.577143|
|          44|   -6.098708|   -4.375814|   -4.434760|   -5.573126|
|          45|   -6.102089|   -4.371707|   -4.435018|   -5.569018|
|          46|   -6.105327|   -4.367295|   -4.435153|   -5.565029|
|          47|   -6.108691|   -4.362696|   -4.435223|   -5.561079|
|          48|   -6.111954|   -4.358030|   -4.435290|   -5.557277|
|          49|   -6.115057|   -4.353537|   -4.435300|   -5.553579|
|          50|   -6.117921|   -4.349337|   -4.435097|   -5.549783|
|          51|   -6.120268|   -4.345402|   -4.434326|   -5.545667|
|          52|   -6.121800|   -4.341544|   -4.432994|   -5.540954|
|          53|   -6.122198|   -4.337660|   -4.430785|   -5.535413|
|          54|   -6.120779|   -4.333593|   -4.427101|   -5.528960|
|          55|   -6.117419|   -4.329348|   -4.421551|   -5.521763|
|          56|   -6.111160|   -4.324838|   -4.413948|   -5.514111|
|          57|   -6.102735|   -4.320030|   -4.404455|   -5.506464|
|          58|   -6.092974|   -4.314905|   -4.393688|   -5.499479|
|          59|   -6.082622|   -4.309306|   -4.382636|   -5.494196|
|          60|   -6.073180|   -4.302993|   -4.372651|   -5.491200|
|          61|   -6.066861|   -4.296175|   -4.365187|   -5.490978|
|          62|   -6.064367|   -4.289326|   -4.361117|   -5.493645|
|          63|   -6.066211|   -4.282820|   -4.360436|   -5.498490|
|          64|   -6.071995|   -4.276887|   -4.362647|   -5.504155|
|          65|   -6.079917|   -4.271505|   -4.366630|   -5.509620|
|          66|   -6.088592|   -4.266071|   -4.370678|   -5.513603|
|          67|   -6.095050|   -4.260236|   -4.372786|   -5.515851|
|          68|   -6.097348|   -4.254008|   -4.370342|   -5.515297|
|          69|   -6.093339|   -4.247103|   -4.361867|   -5.511829|
|          70|   -6.082878|   -4.239441|   -4.346741|   -5.504949|
|          71|   -6.065005|   -4.230746|   -4.327173|   -5.496192|
|          72|   -6.043214|   -4.221147|   -4.304722|   -5.486581|
|          73|   -6.023205|   -4.211154|   -4.283049|   -5.478625|
|          74|   -6.004778|   -4.202141|   -4.263219|   -5.474252|
|          75|   -5.992029|   -4.194617|   -4.245550|   -5.472732|
|          76|   -5.984256|   -4.188097|   -4.232347|   -5.471725|
|          77|   -5.979409|   -4.181517|   -4.224830|   -5.471956|
|          78|   -5.977274|   -4.175040|   -4.222870|   -5.472860|
|          79|   -5.974877|   -4.168016|   -4.224544|   -5.475314|
|          80|   -5.979154|   -4.161946|   -4.228346|   -5.478007|
|          81|   -5.985081|   -4.156795|   -4.233393|   -5.479726|
|          82|   -5.987403|   -4.151621|   -4.237657|   -5.477739|
|          83|   -5.984117|   -4.145503|   -4.239869|   -5.473580|
|          84|   -5.975896|   -4.139294|   -4.238987|   -5.467011|
|          85|   -5.956740|   -4.132209|   -4.234183|   -5.460700|
|          86|   -5.939702|   -4.125898|   -4.225979|   -5.456940|
|          87|   -5.926509|   -4.121099|   -4.215728|   -5.455927|
|          88|   -5.924513|   -4.117789|   -4.205613|   -5.456667|
|          89|   -5.933148|   -4.117843|   -4.198005|   -5.456495|
|          90|   -5.945253|   -4.119897|   -4.193703|   -5.454571|
|          91|   -5.956719|   -4.120932|   -4.192729|   -5.451091|
|          92|   -5.958747|   -4.118874|   -4.195220|   -5.447691|
|          93|   -5.952777|   -4.113865|   -4.199982|   -5.446060|
|          94|   -5.946037|   -4.107966|   -4.205617|   -5.447623|
|          95|   -5.946369|   -4.102907|   -4.211800|   -5.451501|
|          96|   -5.954029|   -4.099964|   -4.218341|   -5.457535|
|          97|   -5.970918|   -4.099431|   -4.224072|   -5.463083|
|          98|   -5.988160|   -4.100652|   -4.228223|   -5.466635|
|          99|   -5.998147|   -4.102949|   -4.228891|   -5.467227|
|         100|   -6.000565|   -4.105630|   -4.226442|   -5.465919|
|         101|   -5.991176|   -4.108207|   -4.222253|   -5.463897|
|         102|   -5.976464|   -4.109845|   -4.217477|   -5.463435|
|         103|   -5.962697|   -4.111028|   -4.214182|   -5.465079|
|         104|   -5.958331|   -4.113681|   -4.213008|   -5.469508|
|         105|   -5.962593|   -4.118810|   -4.214357|   -5.473904|
|         106|   -5.973477|   -4.126062|   -4.218504|   -5.478259|
|         107|   -5.984639|   -4.134058|   -4.224602|   -5.481951|
|         108|   -5.996640|   -4.140949|   -4.231707|   -5.483367|
|         109|   -5.999525|   -4.146094|   -4.240115|   -5.481453|
|         110|   -5.993140|   -4.148833|   -4.247315|   -5.477942|
|         111|   -5.984210|   -4.149908|   -4.252298|   -5.474284|
|         112|   -5.969461|   -4.149710|   -4.255397|   -5.472090|
|         113|   -5.954851|   -4.148348|   -4.255463|   -5.472095|
|         114|   -5.949968|   -4.147230|   -4.254059|   -5.476448|
|         115|   -5.954775|   -4.149001|   -4.252872|   -5.480711|
|         116|   -5.965211|   -4.152672|   -4.251479|   -5.484493|
|         117|   -5.979973|   -4.157708|   -4.249735|   -5.487024|
|         118|   -5.991399|   -4.163323|   -4.248448|   -5.487222|
|         119|   -5.995874|   -4.167375|   -4.246108|   -5.486243|
|         120|   -5.994592|   -4.170407|   -4.242752|   -5.482343|
|         121|   -5.984238|   -4.171815|   -4.239133|   -5.477733|
|         122|   -5.969317|   -4.171953|   -4.233698|   -5.473895|
|         123|   -5.952295|   -4.170243|   -4.226772|   -5.472718|
|         124|   -5.940071|   -4.168826|   -4.220435|   -5.474108|
|         125|   -5.935563|   -4.169310|   -4.214891|   -5.476862|
|         126|   -5.937867|   -4.171517|   -4.210669|   -5.482276|
|         127|   -5.946208|   -4.175800|   -4.207828|   -5.486751|
|         128|   -5.956224|   -4.180828|   -4.206008|   -5.489970|
|         129|   -5.966100|   -4.185724|   -4.204342|   -5.492081|
|         130|   -5.973905|   -4.191171|   -4.201776|   -5.492789|
|         131|   -5.976743|   -4.195108|   -4.197365|   -5.492427|
|         132|   -5.977483|   -4.198883|   -4.192295|   -5.490767|
|         133|   -5.971902|   -4.201257|   -4.187990|   -5.489574|
|         134|   -5.964249|   -4.201738|   -4.182965|   -5.491244|
|         135|   -5.964276|   -4.201974|   -4.177809|   -5.495110|
|         136|   -5.972627|   -4.204074|   -4.174269|   -5.498923|
|         137|   -5.983943|   -4.208958|   -4.172455|   -5.501314|
|         138|   -5.994052|   -4.214580|   -4.172168|   -5.503076|
|         139|   -6.000805|   -4.218821|   -4.173330|   -5.504331|
|         140|   -6.006832|   -4.222601|   -4.175005|   -5.504629|
|         141|   -6.011242|   -4.225316|   -4.176563|   -5.503807|
|         142|   -6.015060|   -4.228355|   -4.177759|   -5.502173|
|         143|   -6.016527|   -4.231478|   -4.177538|   -5.500181|
|         144|   -6.012781|   -4.231991|   -4.176637|   -5.497867|
|         145|   -6.008481|   -4.230509|   -4.176240|   -5.496833|
|         146|   -6.003114|   -4.226981|   -4.176802|   -5.498159|
|         147|   -6.006131|   -4.223518|   -4.176626|   -5.500485|
|         148|   -6.016647|   -4.222250|   -4.176740|   -5.502401|
|         149|   -6.029515|   -4.222159|   -4.177505|   -5.502635|
|         150|   -6.038678|   -4.222259|   -4.178713|   -5.501460|
|         151|   -6.041851|   -4.221550|   -4.180057|   -5.499205|
|         152|   -6.039285|   -4.218320|   -4.181464|   -5.497114|
|         153|   -6.036793|   -4.214397|   -4.181996|   -5.495145|
|         154|   -6.036403|   -4.211485|   -4.180919|   -5.492624|
|         155|   -6.035460|   -4.208633|   -4.177924|   -5.489475|
|         156|   -6.033292|   -4.206953|   -4.172944|   -5.486705|
|         157|   -6.029590|   -4.204409|   -4.166328|   -5.484789|
|         158|   -6.023657|   -4.200329|   -4.159716|   -5.483039|
|         159|   -6.018415|   -4.195575|   -4.153913|   -5.482290|
|         160|   -6.017317|   -4.191495|   -4.148767|   -5.482627|
|         161|   -6.023829|   -4.189395|   -4.143786|   -5.483217|
|         162|   -6.033140|   -4.189633|   -4.139346|   -5.483102|
|         163|   -6.040568|   -4.190907|   -4.135825|   -5.481804|
|         164|   -6.044260|   -4.192005|   -4.133482|   -5.479331|
|         165|   -6.041880|   -4.192774|   -4.132345|   -5.476401|
|         166|   -6.036699|   -4.192268|   -4.132376|   -5.473747|
|         167|   -6.032561|   -4.191090|   -4.133268|   -5.471803|
|         168|   -6.031343|   -4.191110|   -4.134435|   -5.469933|
|         169|   -6.031590|   -4.191499|   -4.135455|   -5.468088|
|         170|   -6.031861|   -4.191622|   -4.136041|   -5.466007|
|         171|   -6.032361|   -4.192161|   -4.136042|   -5.464380|
|         172|   -6.031885|   -4.191244|   -4.135505|   -5.463117|
|         173|   -6.029734|   -4.188889|   -4.135094|   -5.461915|
|         174|   -6.029979|   -4.185621|   -4.134975|   -5.461154|
|         175|   -6.032825|   -4.182566|   -4.135310|   -5.460592|
|         176|   -6.038078|   -4.179943|   -4.135375|   -5.460077|
|         177|   -6.044681|   -4.177882|   -4.134813|   -5.459533|
|         178|   -6.051223|   -4.176158|   -4.133680|   -5.458535|
|         179|   -6.056026|   -4.174249|   -4.132429|   -5.456948|
|         180|   -6.058336|   -4.172513|   -4.131064|   -5.454852|
|         181|   -6.057709|   -4.170661|   -4.129758|   -5.452694|
|         182|   -6.054643|   -4.167790|   -4.128716|   -5.450900|
|         183|   -6.051350|   -4.165025|   -4.127617|   -5.449607|
|         184|   -6.050623|   -4.162977|   -4.126267|   -5.448934|
|         185|   -6.051560|   -4.160757|   -4.124607|   -5.448565|
|         186|   -6.054642|   -4.159955|   -4.122470|   -5.448379|
|         187|   -6.057502|   -4.159594|   -4.119645|   -5.448461|
|         188|   -6.060736|   -4.158928|   -4.116540|   -5.448749|
|         189|   -6.063145|   -4.157930|   -4.113295|   -5.449544|
|         190|   -6.065343|   -4.156525|   -4.110290|   -5.450670|
|         191|   -6.067648|   -4.154404|   -4.107795|   -5.452078|
|         192|   -6.071117|   -4.152134|   -4.105733|   -5.453765|
|         193|   -6.075288|   -4.149975|   -4.103722|   -5.455858|
|         194|   -6.080944|   -4.148078|   -4.101528|   -5.458202|
|         195|   -6.087227|   -4.146437|   -4.099539|   -5.460608|
|         196|   -6.093607|   -4.145233|   -4.097940|   -5.462849|
|         197|   -6.099548|   -4.144896|   -4.096506|   -5.464825|
|         198|   -6.103636|   -4.144520|   -4.095553|   -5.466403|
|         199|   -6.103977|   -4.143467|   -4.095161|   -5.467844|
|         200|   -6.101880|   -4.142421|   -4.094980|   -5.469590|
|         201|   -6.099298|   -4.140925|   -4.094817|   -5.471712|
|         202|   -6.096366|   -4.138427|   -4.094574|   -5.474251|
|         203|   -6.097520|   -4.137537|   -4.093845|   -5.477229|
|         204|   -6.100361|   -4.137705|   -4.092755|   -5.480520|
|         205|   -6.105031|   -4.138021|   -4.091462|   -5.483586|
|         206|   -6.109528|   -4.138219|   -4.090034|   -5.486648|
|         207|   -6.113773|   -4.138100|   -4.088292|   -5.489483|
|         208|   -6.116874|   -4.137170|   -4.086168|   -5.492363|
|         209|   -6.117758|   -4.135326|   -4.083925|   -5.495115|
|         210|   -6.118772|   -4.132708|   -4.081747|   -5.498029|
|         211|   -6.118885|   -4.129515|   -4.079730|   -5.501154|
|         212|   -6.118901|   -4.125811|   -4.077608|   -5.504881|
|         213|   -6.121993|   -4.121984|   -4.075254|   -5.509063|
|         214|   -6.127962|   -4.118445|   -4.073297|   -5.513350|
|         215|   -6.135695|   -4.115602|   -4.071606|   -5.517257|
|         216|   -6.144160|   -4.113783|   -4.070113|   -5.520506|
|         217|   -6.151430|   -4.112279|   -4.069050|   -5.522988|
|         218|   -6.156046|   -4.109955|   -4.068524|   -5.525009|
|         219|   -6.157622|   -4.107033|   -4.068482|   -5.526968|
|         220|   -6.158050|   -4.104538|   -4.068685|   -5.529073|
|         221|   -6.158794|   -4.101573|   -4.069072|   -5.531438|
|         222|   -6.160389|   -4.097613|   -4.069777|   -5.534142|
|         223|   -6.164913|   -4.095189|   -4.070527|   -5.536946|
|         224|   -6.172003|   -4.093509|   -4.071130|   -5.539564|
|         225|   -6.180003|   -4.091280|   -4.071771|   -5.541929|
|         226|   -6.188642|   -4.088963|   -4.072679|   -5.544096|
|         227|   -6.196784|   -4.086640|   -4.073553|   -5.546248|
|         228|   -6.202418|   -4.083947|   -4.074587|   -5.548267|
|         229|   -6.208530|   -4.080622|   -4.076215|   -5.550553|
|         230|   -6.215064|   -4.077312|   -4.078853|   -5.553138|
|         231|   -6.215687|   -4.073909|   -4.081907|   -5.556452|
|         232|   -6.227563|   -4.070693|   -4.084668|   -5.560968|
|         233|   -6.234582|   -4.068852|   -4.087906|   -5.564478|
|         234|   -6.244718|   -4.066523|   -4.090941|   -5.569223|
|         235|   -6.261730|   -4.065731|   -4.094680|   -5.572932|
|         236|   -6.275587|   -4.065143|   -4.098964|   -5.575902|
|         237|   -6.285704|   -4.064695|   -4.103428|   -5.578377|
|         238|   -6.294310|   -4.064223|   -4.108074|   -5.580155|
|         239|   -6.298701|   -4.063900|   -4.113053|   -5.581851|
|         240|   -6.300295|   -4.063647|   -4.118088|   -5.583479|
|         241|   -6.302572|   -4.063580|   -4.123204|   -5.585555|
|         242|   -6.305279|   -4.063852|   -4.128317|   -5.587951|
|         243|   -6.309394|   -4.064080|   -4.133381|   -5.590943|
|         244|   -6.314718|   -4.064207|   -4.138283|   -5.594158|
|         245|   -6.320783|   -4.064464|   -4.143128|   -5.597630|
|         246|   -6.328437|   -4.064589|   -4.147556|   -5.601154|
|         247|   -6.334135|   -4.064096|   -4.151933|   -5.604774|
|         248|   -6.338716|   -4.062985|   -4.156230|   -5.607972|
|         249|   -6.341849|   -4.061565|   -4.160036|   -5.611394|
|         250|   -6.343922|   -4.060053|   -4.163686|   -5.614989|
|         251|   -6.348661|   -4.058358|   -4.166719|   -5.618252|
|         252|   -6.346925|   -4.056059|   -4.169413|   -5.621365|
|         253|   -6.349289|   -4.053290|   -4.171174|   -5.624976|
|         254|   -6.351953|   -4.051057|   -4.173019|   -5.628603|
|         255|   -6.354291|   -4.048522|   -4.174939|   -5.632166|
|         256|   -6.358561|   -4.045780|   -4.176718|   -5.635933|
|         257|   -6.360792|   -4.042634|   -4.178132|   -5.639612|
|         258|   -6.365859|   -4.038986|   -4.178667|   -5.643487|
|         259|   -6.371812|   -4.035155|   -4.178175|   -5.646860|
|         260|   -6.375215|   -4.031183|   -4.176519|   -5.649943|
|         261|   -6.378451|   -4.027239|   -4.173933|   -5.652660|
|         262|   -6.379665|   -4.023423|   -4.170752|   -5.654747|
|         263|   -6.379051|   -4.019891|   -4.167176|   -5.656627|
|         264|   -6.377986|   -4.016734|   -4.163144|   -5.658118|
|         265|   -6.375714|   -4.014049|   -4.158671|   -5.659572|
|         266|   -6.372616|   -4.012029|   -4.154003|   -5.660974|
|         267|   -6.371574|   -4.010683|   -4.149405|   -5.662410|
|         268|   -6.369970|   -4.009907|   -4.145292|   -5.663963|
|         269|   -6.370033|   -4.009385|   -4.141599|   -5.665622|
|         270|   -6.371181|   -4.009277|   -4.138450|   -5.667908|
|         271|   -6.375287|   -4.009760|   -4.136046|   -5.670915|
|         272|   -6.380318|   -4.010908|   -4.134690|   -5.673463|
|         273|   -6.383508|   -4.012394|   -4.134059|   -5.676422|
|         274|   -6.390562|   -4.014035|   -4.133982|   -5.679640|
|         275|   -6.394865|   -4.015798|   -4.134742|   -5.682752|
|         276|   -6.398492|   -4.017529|   -4.135990|   -5.685643|
|         277|   -6.403686|   -4.019249|   -4.137764|   -5.689157|
|         278|   -6.407101|   -4.021251|   -4.140116|   -5.692638|
|         279|   -6.410433|   -4.023369|   -4.143076|   -5.696090|
|         280|   -6.413503|   -4.025839|   -4.146712|   -5.699947|
|         281|   -6.415514|   -4.028615|   -4.151177|   -5.704000|
|         282|   -6.418867|   -4.031417|   -4.156623|   -5.708476|
|         283|   -6.421305|   -4.034369|   -4.163179|   -5.713148|
|         284|   -6.424789|   -4.037564|   -4.170588|   -5.718069|
|         285|   -6.427859|   -4.040995|   -4.178808|   -5.723101|
|         286|   -6.430503|   -4.044494|   -4.187525|   -5.728250|
|         287|   -6.432393|   -4.047949|   -4.196499|   -5.733355|
|         288|   -6.433455|   -4.051322|   -4.205443|   -5.738203|
|         289|   -6.433002|   -4.054580|   -4.214062|   -5.742696|
|         290|   -6.431308|   -4.057652|   -4.222153|   -5.746596|
|         291|   -6.428068|   -4.060482|   -4.229438|   -5.749631|
|         292|   -6.421840|   -4.063027|   -4.235738|   -5.751731|
|         293|   -6.412784|   -4.065291|   -4.240813|   -5.753014|
|         294|   -6.401324|   -4.067321|   -4.244524|   -5.753715|
|         295|   -6.388331|   -4.069162|   -4.246757|   -5.754123|
|         296|   -6.375771|   -4.070924|   -4.247534|   -5.754539|
|         297|   -6.363983|   -4.072648|   -4.246960|   -5.755166|
|         298|   -6.353401|   -4.074501|   -4.245080|   -5.755868|
|         299|   -6.344643|   -4.076517|   -4.242017|   -5.756888|
|         300|   -6.335767|   -4.078612|   -4.238146|   -5.757962|
|         301|   -6.329256|   -4.080816|   -4.233617|   -5.758911|
|         302|   -6.321859|   -4.083182|   -4.228771|   -5.760310|
|         303|   -6.316601|   -4.085733|   -4.223560|   -5.761238|
|         304|   -6.310411|   -4.088194|   -4.218412|   -5.762492|
|         305|   -6.305663|   -4.090780|   -4.213420|   -5.763098|
|         306|   -6.299755|   -4.093374|   -4.208675|   -5.763664|
|         307|   -6.294688|   -4.096000|   -4.204201|   -5.763981|
|         308|   -6.289126|   -4.098742|   -4.200108|   -5.763970|
|         309|   -6.282604|   -4.101578|   -4.196379|   -5.763739|
|         310|   -6.275337|   -4.104505|   -4.193066|   -5.763628|
|         311|   -6.268001|   -4.107575|   -4.190133|   -5.763580|
|         312|   -6.260082|   -4.110934|   -4.187654|   -5.763786|
|         313|   -6.251573|   -4.114648|   -4.185610|   -5.764174|
|         314|   -6.243001|   -4.118784|   -4.184233|   -5.764640|
|         315|   -6.233795|   -4.123414|   -4.183461|   -5.765237|
|         316|   -6.223799|   -4.128625|   -4.183473|   -5.766168|
|         317|   -6.212751|   -4.134411|   -4.184178|   -5.767772|
|         318|   -6.201535|   -4.140675|   -4.185553|   -5.770580|
|         319|   -6.191585|   -4.147392|   -4.187629|   -5.774834|
|         320|   -6.183436|   -4.154567|   -4.190228|   -5.780302|
|         321|   -6.176465|   -4.162203|   -4.193237|   -5.786607|
|         322|   -6.170226|   -4.170022|   -4.196492|   -5.793347|
|         323|   -6.164458|   -4.177802|   -4.199964|   -5.800213|
|         324|   -6.158499|   -4.185641|   -4.203514|   -5.807055|
|         325|   -6.152176|   -4.193223|   -4.206941|   -5.813897|
|         326|   -6.145898|   -4.200179|   -4.209783|   -5.820929|
|         327|   -6.139897|   -4.206729|   -4.212139|   -5.827739|
|         328|   -6.134236|   -4.212763|   -4.214495|   -5.834593|
|         329|   -6.128559|   -4.218289|   -4.216503|   -5.841392|
|         330|   -6.123333|   -4.223271|   -4.218354|   -5.847861|
|         331|   -6.118281|   -4.227736|   -4.219813|   -5.853669|
|         332|   -6.113295|   -4.231825|   -4.220769|   -5.858420|
|         333|   -6.108115|   -4.235765|   -4.221261|   -5.861911|
|         334|   -6.102412|   -4.239574|   -4.221448|   -5.864541|
|         335|   -6.096269|   -4.243348|   -4.221520|   -5.867096|
|         336|   -6.090197|   -4.247337|   -4.221633|   -5.870429|
|         337|   -6.085039|   -4.251605|   -4.221930|   -5.874645|
|         338|   -6.081069|   -4.256113|   -4.222381|   -5.879349|
|         339|   -6.078069|   -4.260748|   -4.222898|   -5.883970|
|         340|   -6.075427|   -4.265366|   -4.223482|   -5.888104|
|         341|   -6.072713|   -4.269782|   -4.224063|   -5.891749|
|         342|   -6.069908|   -4.273912|   -4.224606|   -5.895126|
|         343|   -6.067075|   -4.277840|   -4.225320|   -5.898228|
|         344|   -6.064103|   -4.281412|   -4.226300|   -5.902692|
|         345|   -6.061449|   -4.284675|   -4.227807|   -5.907823|
|         346|   -6.059995|   -4.287761|   -4.229738|   -5.913921|
|         347|   -6.059112|   -4.290540|   -4.232066|   -5.919470|
|         348|   -6.058785|   -4.292740|   -4.234699|   -5.923569|
|         349|   -6.058398|   -4.294438|   -4.237584|   -5.925887|
|         350|   -6.057540|   -4.295620|   -4.240658|   -5.926537|
|         351|   -6.056040|   -4.296127|   -4.243934|   -5.926273|
|         352|   -6.054213|   -4.296190|   -4.247327|   -5.925398|
|         353|   -6.052475|   -4.296255|   -4.250798|   -5.923993|
|         354|   -6.050929|   -4.296349|   -4.254421|   -5.921579|
|         355|   -6.049542|   -4.296356|   -4.257860|   -5.917417|
|         356|   -6.047932|   -4.296308|   -4.260848|   -5.911996|
|         357|   -6.045997|   -4.296240|   -4.263052|   -5.905237|
|         358|   -6.043513|   -4.296537|   -4.264456|   -5.898209|
|         359|   -6.040753|   -4.297471|   -4.265208|   -5.890946|
|         360|   -6.037507|   -4.298928|   -4.265541|   -5.885355|
|         361|   -6.034617|   -4.300924|   -4.265848|   -5.880883|
|         362|   -6.032970|   -4.303426|   -4.266296|   -5.878056|
|         363|   -6.032349|   -4.306574|   -4.267198|   -5.875141|
|         364|   -6.032275|   -4.309987|   -4.268538|   -5.871508|
|         365|   -6.032002|   -4.313555|   -4.270440|   -5.867215|
|         366|   -6.031284|   -4.317185|   -4.272956|   -5.862471|
|         367|   -6.029973|   -4.320848|   -4.276396|   -5.858224|
|         368|   -6.028596|   -4.324821|   -4.280528|   -5.854502|
|         369|   -6.027089|   -4.328845|   -4.285548|   -5.851524|
|         370|   -6.026126|   -4.332781|   -4.290962|   -5.848726|
|         371|   -6.025031|   -4.336350|   -4.296653|   -5.846384|
|         372|   -6.024248|   -4.339524|   -4.301932|   -5.844587|
|         373|   -6.023106|   -4.342273|   -4.306633|   -5.843646|
|         374|   -6.022136|   -4.344834|   -4.310413|   -5.842947|
|         375|   -6.020801|   -4.347228|   -4.313341|   -5.842687|
|         376|   -6.019664|   -4.349790|   -4.315482|   -5.843942|
|         377|   -6.018728|   -4.352493|   -4.316941|   -5.846399|
|         378|   -6.018295|   -4.355458|   -4.317843|   -5.849839|
|         379|   -6.018810|   -4.358679|   -4.318267|   -5.853208|
|         380|   -6.019713|   -4.362391|   -4.318493|   -5.856298|
|         381|   -6.020930|   -4.366781|   -4.318753|   -5.858902|
|         382|   -6.022083|   -4.371826|   -4.319408|   -5.861296|
|         383|   -6.023051|   -4.377595|   -4.320776|   -5.863870|
|         384|   -6.023945|   -4.384117|   -4.323146|   -5.866970|
|         385|   -6.025075|   -4.391157|   -4.326577|   -5.870346|
|         386|   -6.026527|   -4.398412|   -4.331055|   -5.874136|
|         387|   -6.028081|   -4.405561|   -4.336390|   -5.877962|
|         388|   -6.029635|   -4.412329|   -4.342203|   -5.881837|
|         389|   -6.031097|   -4.418546|   -4.348218|   -5.885111|
|         390|   -6.032648|   -4.424124|   -4.354306|   -5.887973|
|         391|   -6.033762|   -4.428846|   -4.360386|   -5.891086|
|         392|   -6.035141|   -4.432867|   -4.366227|   -5.895043|
|         393|   -6.036509|   -4.435818|   -4.371591|   -5.899839|
|         394|   -6.038556|   -4.437714|   -4.376294|   -5.904797|
|         395|   -6.041379|   -4.438944|   -4.380365|   -5.909051|
|         396|   -6.044042|   -4.439747|   -4.383795|   -5.912876|
|         397|   -6.046709|   -4.440357|   -4.386811|   -5.915588|
|         398|   -6.049003|   -4.441114|   -4.389767|   -5.918197|
|         399|   -6.050627|   -4.442073|   -4.392592|   -5.919313|
|         400|   -6.052074|   -4.442533|   -4.395461|   -5.921419|
|         401|   -6.053499|   -4.442486|   -4.398332|   -5.923183|
|         402|   -6.054583|   -4.441392|   -4.400897|   -5.921232|
|         403|   -6.055413|   -4.438883|   -4.402997|   -5.919808|
|         404|   -6.056476|   -4.435488|   -4.404704|   -5.917387|
|         405|   -6.056261|   -4.431092|   -4.406130|   -5.913159|
|         406|   -6.057126|   -4.426090|   -4.407207|   -5.910740|
|         407|   -6.057995|   -4.420741|   -4.407995|   -5.908408|
|         408|   -6.059910|   -4.415109|   -4.408189|   -5.905498|
|         409|   -6.061890|   -4.409246|   -4.407864|   -5.902563|
|         410|   -6.064770|   -4.403380|   -4.407019|   -5.900401|
|         411|   -6.066933|   -4.397763|   -4.405969|   -5.897475|
|         412|   -6.069436|   -4.392240|   -4.405090|   -5.895776|
|         413|   -6.071426|   -4.387065|   -4.404492|   -5.893076|
|         414|   -6.074125|   -4.381810|   -4.404034|   -5.891172|
|         415|   -6.076454|   -4.376485|   -4.403567|   -5.888950|
|         416|   -6.079406|   -4.370982|   -4.403060|   -5.886312|
|         417|   -6.082341|   -4.365233|   -4.402645|   -5.883216|
|         418|   -6.085116|   -4.359297|   -4.401325|   -5.880353|
|         419|   -6.088826|   -4.353431|   -4.399014|   -5.877583|
|         420|   -6.092391|   -4.347457|   -4.395827|   -5.873449|
|         421|   -6.096556|   -4.341010|   -4.392341|   -5.866594|
|         422|   -6.100700|   -4.334202|   -4.389239|   -5.858155|
|         423|   -6.104406|   -4.326693|   -4.385538|   -5.847505|
|         424|   -6.109076|   -4.318898|   -4.380987|   -5.835650|
|         425|   -6.113038|   -4.311005|   -4.376246|   -5.824549|
|         426|   -6.117321|   -4.303277|   -4.372132|   -5.815136|
|         427|   -6.121244|   -4.295695|   -4.368694|   -5.808137|
|         428|   -6.125462|   -4.288563|   -4.365969|   -5.803408|
|         429|   -6.129391|   -4.281448|   -4.363925|   -5.800167|
|         430|   -6.133635|   -4.274427|   -4.362373|   -5.798665|
|         431|   -6.140116|   -4.267690|   -4.361072|   -5.799294|
|         432|   -6.145955|   -4.261120|   -4.360198|   -5.800551|
|         433|   -6.152369|   -4.254900|   -4.359674|   -5.801966|
|         434|   -6.158487|   -4.248839|   -4.359177|   -5.802999|
|         435|   -6.164604|   -4.242854|   -4.358552|   -5.802826|
|         436|   -6.170359|   -4.236812|   -4.357951|   -5.801929|
|         437|   -6.175143|   -4.230792|   -4.356884|   -5.800173|
|         438|   -6.180350|   -4.224729|   -4.355304|   -5.797696|
|         439|   -6.185592|   -4.218824|   -4.353258|   -5.794826|
|         440|   -6.190223|   -4.213045|   -4.350523|   -5.790489|
|         441|   -6.193541|   -4.207240|   -4.346699|   -5.784956|
|         442|   -6.195154|   -4.201353|   -4.341613|   -5.778418|
|         443|   -6.195227|   -4.195358|   -4.335503|   -5.770034|
|         444|   -6.192061|   -4.189103|   -4.327994|   -5.759770|
|         445|   -6.185691|   -4.182457|   -4.318832|   -5.747495|
|         446|   -6.176189|   -4.175518|   -4.308301|   -5.733478|
|         447|   -6.162721|   -4.168530|   -4.296679|   -5.718008|
|         448|   -6.145961|   -4.160941|   -4.284339|   -5.702992|
|         449|   -6.124704|   -4.152747|   -4.271366|   -5.687375|
|         450|   -6.102066|   -4.144629|   -4.258169|   -5.670146|
|         451|   -6.086137|   -4.136775|   -4.245674|   -5.656439|
|         452|   -6.068276|   -4.129252|   -4.234831|   -5.648305|
|         453|   -6.058193|   -4.122589|   -4.225373|   -5.642342|
|         454|   -6.057318|   -4.116041|   -4.218512|   -5.635861|
|         455|   -6.061814|   -4.110541|   -4.214248|   -5.632627|
|         456|   -6.063421|   -4.107305|   -4.211527|   -5.631030|
|         457|   -6.071299|   -4.104758|   -4.210077|   -5.635864|
|         458|   -6.085027|   -4.102393|   -4.210024|   -5.639284|
|         459|   -6.097848|   -4.099555|   -4.210306|   -5.644457|
|         460|   -6.113290|   -4.097660|   -4.210668|   -5.649911|
|         461|   -6.130083|   -4.096255|   -4.210883|   -5.655099|
|         462|   -6.144544|   -4.095045|   -4.210960|   -5.660439|
|         463|   -6.157870|   -4.093900|   -4.210887|   -5.665831|
|         464|   -6.170050|   -4.092882|   -4.210693|   -5.670330|
|         465|   -6.180148|   -4.091761|   -4.210706|   -5.673917|
|         466|   -6.187739|   -4.090400|   -4.210957|   -5.678160|
|         467|   -6.193356|   -4.088932|   -4.211358|   -5.682272|
|         468|   -6.198421|   -4.087412|   -4.212062|   -5.685166|
|         469|   -6.203177|   -4.085883|   -4.213113|   -5.687664|
|         470|   -6.208021|   -4.084323|   -4.214397|   -5.689062|
|         471|   -6.210309|   -4.082702|   -4.215673|   -5.690306|
|         472|   -6.213488|   -4.081126|   -4.216923|   -5.690990|
|         473|   -6.216685|   -4.079674|   -4.218136|   -5.690489|
|         474|   -6.218676|   -4.078308|   -4.219316|   -5.688661|
|         475|   -6.218467|   -4.076951|   -4.220178|   -5.687637|
|         476|   -6.216964|   -4.075616|   -4.220742|   -5.686678|
|         477|   -6.215994|   -4.074331|   -4.221325|   -5.685466|
|         478|   -6.217654|   -4.073137|   -4.222162|   -5.683286|
|         479|   -6.219215|   -4.071768|   -4.223335|   -5.680314|
|         480|   -6.217650|   -4.070233|   -4.224470|   -5.677591|
|         481|   -6.217939|   -4.068631|   -4.225450|   -5.673523|
|         482|   -6.217291|   -4.067045|   -4.226130|   -5.668704|
|         483|   -6.215273|   -4.065363|   -4.226508|   -5.664720|
|         484|   -6.212136|   -4.063732|   -4.226685|   -5.661945|
|         485|   -6.209106|   -4.062416|   -4.226810|   -5.660814|
|         486|   -6.209341|   -4.061650|   -4.226616|   -5.660665|
|         487|   -6.214951|   -4.061548|   -4.225843|   -5.661459|
|         488|   -6.222280|   -4.061735|   -4.225540|   -5.662894|
|         489|   -6.233449|   -4.061728|   -4.226186|   -5.664493|
|         490|   -6.247073|   -4.061467|   -4.227381|   -5.665909|
|         491|   -6.261945|   -4.061771|   -4.228697|   -5.667051|
|         492|   -6.277850|   -4.063047|   -4.229924|   -5.667769|
|         493|   -6.292602|   -4.064702|   -4.231198|   -5.668216|
|         494|   -6.305223|   -4.066246|   -4.232087|   -5.668311|
|         495|   -6.315113|   -4.067704|   -4.232188|   -5.668189|
|         496|   -6.321043|   -4.069187|   -4.231880|   -5.667896|
|         497|   -6.323529|   -4.070679|   -4.231399|   -5.667544|
|         498|   -6.324385|   -4.072010|   -4.230734|   -5.667030|
|         499|   -6.325011|   -4.073003|   -4.229803|   -5.666501|
|         500|   -6.326280|   -4.073890|   -4.228754|   -5.666007|
|         501|   -6.327576|   -4.074967|   -4.228096|   -5.665407|
|         502|   -6.327853|   -4.076349|   -4.227926|   -5.664612|
|         503|   -6.326206|   -4.077959|   -4.227652|   -5.663609|
|         504|   -6.322971|   -4.079505|   -4.227038|   -5.662548|
|         505|   -6.319569|   -4.080847|   -4.226484|   -5.661502|
|         506|   -6.320376|   -4.082032|   -4.225953|   -5.660715|
|         507|   -6.333440|   -4.083267|   -4.227011|   -5.659919|
|         508|   -6.351464|   -4.084715|   -4.229391|   -5.659143|
|         509|   -6.369537|   -4.086436|   -4.232103|   -5.658370|
|         510|   -6.386092|   -4.088351|   -4.234807|   -5.657593|
|         511|   -6.401241|   -4.090441|   -4.237503|   -5.656751|
|         512|   -6.414091|   -4.092735|   -4.240181|   -5.655849|
|         513|   -6.424820|   -4.095300|   -4.242604|   -5.654863|
|         514|   -6.433091|   -4.098152|   -4.244556|   -5.653815|
|         515|   -6.439266|   -4.101227|   -4.245882|   -5.652719|
|         516|   -6.443070|   -4.104445|   -4.246514|   -5.651611|
|         517|   -6.445000|   -4.107732|   -4.246507|   -5.650512|
|         518|   -6.445463|   -4.111076|   -4.246041|   -5.649406|
|         519|   -6.445332|   -4.114529|   -4.245381|   -5.648294|
|         520|   -6.444437|   -4.118092|   -4.244782|   -5.647162|
|         521|   -6.442835|   -4.121712|   -4.244280|   -5.646051|
|         522|   -6.440236|   -4.125259|   -4.243763|   -5.644994|
|         523|   -6.437251|   -4.128635|   -4.243215|   -5.643947|
|         524|   -6.433440|   -4.131819|   -4.242823|   -5.642958|
|         525|   -6.429311|   -4.134897|   -4.242789|   -5.641981|
|         526|   -6.424970|   -4.137924|   -4.243148|   -5.641038|
|         527|   -6.420380|   -4.140905|   -4.243789|   -5.640169|
|         528|   -6.415800|   -4.143777|   -4.244573|   -5.639422|
|         529|   -6.411093|   -4.146459|   -4.245394|   -5.638787|
|         530|   -6.406718|   -4.148987|   -4.246237|   -5.638234|
|         531|   -6.402657|   -4.151459|   -4.247165|   -5.637747|
|         532|   -6.398893|   -4.154000|   -4.248230|   -5.637347|
|         533|   -6.395362|   -4.156684|   -4.249570|   -5.637013|
|         534|   -6.392122|   -4.159441|   -4.251162|   -5.636750|
|         535|   -6.388570|   -4.162186|   -4.252766|   -5.636552|
|         536|   -6.385385|   -4.164904|   -4.254126|   -5.636370|
|         537|   -6.381800|   -4.167630|   -4.255232|   -5.636226|
|         538|   -6.378301|   -4.170420|   -4.256360|   -5.636105|
|         539|   -6.374821|   -4.173315|   -4.257638|   -5.636034|
|         540|   -6.371315|   -4.176321|   -4.258993|   -5.636002|
|         541|   -6.367966|   -4.179369|   -4.260301|   -5.636009|
|         542|   -6.364529|   -4.182328|   -4.261501|   -5.636038|
|         543|   -6.361408|   -4.185174|   -4.262654|   -5.636098|
|         544|   -6.358630|   -4.188005|   -4.263779|   -5.636198|
|         545|   -6.356153|   -4.190915|   -4.264992|   -5.636277|
|         546|   -6.354003|   -4.193887|   -4.266333|   -5.636372|
|         547|   -6.351465|   -4.196790|   -4.267873|   -5.636497|
|         548|   -6.349476|   -4.199517|   -4.269450|   -5.636606|
|         549|   -6.346942|   -4.202018|   -4.270809|   -5.636728|
|         550|   -6.344861|   -4.204378|   -4.271941|   -5.636872|
|         551|   -6.342721|   -4.206662|   -4.273002|   -5.637088|
|         552|   -6.340610|   -4.208935|   -4.274044|   -5.637409|
|         553|   -6.338739|   -4.211214|   -4.274970|   -5.637796|
|         554|   -6.336850|   -4.213420|   -4.275701|   -5.638238|
|         555|   -6.335428|   -4.215478|   -4.276179|   -5.638689|
|         556|   -6.333962|   -4.217366|   -4.276358|   -5.639194|
|         557|   -6.332522|   -4.219190|   -4.276325|   -5.639704|
|         558|   -6.331475|   -4.221013|   -4.276065|   -5.640261|
|         559|   -6.329915|   -4.222749|   -4.275674|   -5.640877|
|         560|   -6.328882|   -4.224276|   -4.275134|   -5.641468|
|         561|   -6.327312|   -4.225432|   -4.274368|   -5.642026|
|         562|   -6.325918|   -4.226202|   -4.273300|   -5.642579|
|         563|   -6.324452|   -4.226688|   -4.272003|   -5.643131|
|         564|   -6.322920|   -4.227008|   -4.270639|   -5.643712|
|         565|   -6.321469|   -4.227201|   -4.269266|   -5.644344|
|         566|   -6.320199|   -4.227306|   -4.267827|   -5.645031|
|         567|   -6.318969|   -4.227297|   -4.266321|   -5.645713|
|         568|   -6.317403|   -4.227087|   -4.264798|   -5.646427|
|         569|   -6.315419|   -4.226679|   -4.263255|   -5.647140|
|         570|   -6.313546|   -4.226182|   -4.261771|   -5.647814|
|         571|   -6.310717|   -4.225657|   -4.260369|   -5.648631|
|         572|   -6.308303|   -4.225209|   -4.259166|   -5.649458|
|         573|   -6.305427|   -4.224756|   -4.258174|   -5.650333|
|         574|   -6.302792|   -4.224190|   -4.257375|   -5.651193|
|         575|   -6.299813|   -4.223409|   -4.256617|   -5.652049|
|         576|   -6.297132|   -4.222451|   -4.255907|   -5.652893|
|         577|   -6.294801|   -4.221437|   -4.255323|   -5.653737|
|         578|   -6.292955|   -4.220493|   -4.254895|   -5.654569|
|         579|   -6.291560|   -4.219697|   -4.254616|   -5.655418|
|         580|   -6.290975|   -4.219221|   -4.254297|   -5.656298|
|         581|   -6.291254|   -4.219321|   -4.253790|   -5.657140|
|         582|   -6.292210|   -4.220282|   -4.253194|   -5.658005|
|         583|   -6.293629|   -4.222131|   -4.252632|   -5.658863|
|         584|   -6.294743|   -4.224690|   -4.252146|   -5.659686|
|         585|   -6.296421|   -4.227672|   -4.251796|   -5.660471|
|         586|   -6.297163|   -4.230701|   -4.251668|   -5.661436|
|         587|   -6.299006|   -4.233495|   -4.251848|   -5.662451|
|         588|   -6.300211|   -4.235820|   -4.252241|   -5.663554|
|         589|   -6.301672|   -4.237498|   -4.252700|   -5.664670|
|         590|   -6.303679|   -4.238638|   -4.253085|   -5.665744|
|         591|   -6.305661|   -4.239262|   -4.253364|   -5.666924|
|         592|   -6.307673|   -4.239537|   -4.253525|   -5.668190|
|         593|   -6.309714|   -4.239591|   -4.253597|   -5.669458|
|         594|   -6.311647|   -4.239568|   -4.253654|   -5.670774|
|         595|   -6.313547|   -4.239523|   -4.253645|   -5.672190|
|         596|   -6.315204|   -4.239510|   -4.253439|   -5.673708|
|         597|   -6.316868|   -4.239516|   -4.253153|   -5.675269|
|         598|   -6.318259|   -4.239568|   -4.252807|   -5.676869|
|         599|   -6.319907|   -4.239543|   -4.252393|   -5.678507|
|         600|   -6.320676|   -4.239392|   -4.251929|   -5.680314|
|         601|   -6.322340|   -4.239161|   -4.251430|   -5.682190|
|         602|   -6.323466|   -4.238808|   -4.250966|   -5.684288|
|         603|   -6.325858|   -4.238371|   -4.250691|   -5.686537|
|         604|   -6.328417|   -4.237878|   -4.250481|   -5.688840|
|         605|   -6.331550|   -4.237199|   -4.250401|   -5.691248|
|         606|   -6.335280|   -4.236359|   -4.250336|   -5.693644|
|         607|   -6.339531|   -4.235354|   -4.250342|   -5.695941|
|         608|   -6.343715|   -4.234257|   -4.250375|   -5.698151|
|         609|   -6.347859|   -4.233161|   -4.250445|   -5.700289|
|         610|   -6.351787|   -4.232183|   -4.250620|   -5.702370|
|         611|   -6.355291|   -4.231369|   -4.250895|   -5.704441|
|         612|   -6.358248|   -4.230724|   -4.251178|   -5.706531|
|         613|   -6.361140|   -4.230215|   -4.251424|   -5.708626|
|         614|   -6.363805|   -4.229829|   -4.251698|   -5.710745|
|         615|   -6.365954|   -4.229491|   -4.252035|   -5.712843|
|         616|   -6.368663|   -4.229125|   -4.252413|   -5.714913|
|         617|   -6.370051|   -4.228655|   -4.252706|   -5.717269|
|         618|   -6.372776|   -4.228062|   -4.253031|   -5.719759|
|         619|   -6.375293|   -4.227340|   -4.253461|   -5.722495|
|         620|   -6.378968|   -4.226539|   -4.253998|   -5.725475|
|         621|   -6.383585|   -4.225757|   -4.254665|   -5.728505|
|         622|   -6.388496|   -4.224947|   -4.255402|   -5.731572|
|         623|   -6.394208|   -4.224126|   -4.256139|   -5.734591|
|         624|   -6.400814|   -4.223328|   -4.256891|   -5.737511|
|         625|   -6.407368|   -4.222540|   -4.257651|   -5.740281|
|         626|   -6.413162|   -4.221834|   -4.258364|   -5.742933|
|         627|   -6.418095|   -4.221288|   -4.259055|   -5.745514|
|         628|   -6.422375|   -4.220908|   -4.259796|   -5.748047|
|         629|   -6.426508|   -4.220688|   -4.260579|   -5.750574|
|         630|   -6.430111|   -4.220614|   -4.261366|   -5.753156|
|         631|   -6.433792|   -4.220665|   -4.262183|   -5.755635|
|         632|   -6.437679|   -4.220810|   -4.263083|   -5.757969|
|         633|   -6.439779|   -4.220899|   -4.264027|   -5.760553|
|         634|   -6.443462|   -4.220906|   -4.264932|   -5.763058|
|         635|   -6.445853|   -4.220732|   -4.265742|   -5.765980|
|         636|   -6.450396|   -4.220388|   -4.266580|   -5.769072|
|         637|   -6.454718|   -4.219867|   -4.267541|   -5.772420|
|         638|   -6.461215|   -4.219281|   -4.268582|   -5.776002|
|         639|   -6.468982|   -4.218788|   -4.269732|   -5.779490|
|         640|   -6.477108|   -4.218351|   -4.270897|   -5.782885|
|         641|   -6.486753|   -4.218037|   -4.272047|   -5.786192|
|         642|   -6.496529|   -4.217859|   -4.273275|   -5.789251|
|         643|   -6.505116|   -4.217735|   -4.274490|   -5.792096|
|         644|   -6.512091|   -4.217672|   -4.275715|   -5.794840|
|         645|   -6.518388|   -4.217746|   -4.277001|   -5.797539|
|         646|   -6.524125|   -4.218004|   -4.278400|   -5.800182|
|         647|   -6.529218|   -4.218406|   -4.279920|   -5.802761|
|         648|   -6.534174|   -4.218953|   -4.281498|   -5.805274|
|         649|   -6.538024|   -4.219593|   -4.283131|   -5.807918|
|         650|   -6.542487|   -4.220327|   -4.284866|   -5.810351|
|         651|   -6.546865|   -4.221060|   -4.286664|   -5.812765|
|         652|   -6.547796|   -4.221657|   -4.288396|   -5.815535|
|         653|   -6.551980|   -4.222062|   -4.290040|   -5.818607|
|         654|   -6.554986|   -4.222278|   -4.291657|   -5.822083|
|         655|   -6.560583|   -4.222256|   -4.293321|   -5.826011|
|         656|   -6.568964|   -4.222183|   -4.295039|   -5.830163|
|         657|   -6.579909|   -4.222193|   -4.296765|   -5.834453|
|         658|   -6.592384|   -4.222390|   -4.298536|   -5.838645|
|         659|   -6.605034|   -4.222759|   -4.300255|   -5.842612|
|         660|   -6.617372|   -4.223275|   -4.301960|   -5.846527|
|         661|   -6.629028|   -4.223896|   -4.303800|   -5.850325|
|         662|   -6.638773|   -4.224595|   -4.305711|   -5.854065|
|         663|   -6.646320|   -4.225382|   -4.307722|   -5.857883|
|         664|   -6.652474|   -4.226310|   -4.309826|   -5.861827|
|         665|   -6.657179|   -4.227396|   -4.312048|   -5.865879|
|         666|   -6.661524|   -4.228605|   -4.314350|   -5.870019|
|         667|   -6.665005|   -4.229919|   -4.316619|   -5.874186|
|         668|   -6.666769|   -4.231309|   -4.318814|   -5.878542|
|         669|   -6.666438|   -4.232723|   -4.321015|   -5.883126|
|         670|   -6.667426|   -4.234094|   -4.323246|   -5.887818|
|         671|   -6.662740|   -4.235306|   -4.325304|   -5.893175|
|         672|   -6.661849|   -4.236287|   -4.327118|   -5.899204|
|         673|   -6.660558|   -4.237049|   -4.328810|   -5.906083|
|         674|   -6.663183|   -4.237601|   -4.330430|   -5.913594|
|         675|   -6.671041|   -4.238131|   -4.331946|   -5.921615|
|         676|   -6.681471|   -4.238861|   -4.333383|   -5.929771|
|         677|   -6.690825|   -4.239824|   -4.334784|   -5.937666|
|         678|   -6.700553|   -4.240995|   -4.336102|   -5.945594|
|         679|   -6.710072|   -4.242422|   -4.337565|   -5.953377|
|         680|   -6.717050|   -4.244042|   -4.339224|   -5.960960|
|         681|   -6.720675|   -4.245778|   -4.341040|   -5.968488|
|         682|   -6.721165|   -4.247633|   -4.343046|   -5.976005|
|         683|   -6.720256|   -4.249667|   -4.345229|   -5.983442|
|         684|   -6.719392|   -4.251909|   -4.347589|   -5.990746|
|         685|   -6.716893|   -4.254312|   -4.350038|   -5.998072|
|         686|   -6.714238|   -4.256810|   -4.352474|   -6.005074|
|         687|   -6.711299|   -4.259399|   -4.354816|   -6.011601|
|         688|   -6.705871|   -4.262040|   -4.357144|   -6.018042|
|         689|   -6.698722|   -4.264633|   -4.359431|   -6.024560|
|         690|   -6.692169|   -4.267050|   -4.361606|   -6.031412|
|         691|   -6.684132|   -4.269205|   -4.363528|   -6.039092|
|         692|   -6.680790|   -4.271069|   -4.365147|   -6.047656|
|         693|   -6.680110|   -4.272779|   -4.366614|   -6.056655|
|         694|   -6.679645|   -4.274370|   -4.367980|   -6.065670|
|         695|   -6.685699|   -4.276036|   -4.369134|   -6.074826|
|         696|   -6.691904|   -4.278050|   -4.370296|   -6.083076|
|         697|   -6.695316|   -4.280363|   -4.371360|   -6.090447|
|         698|   -6.696367|   -4.282959|   -4.372571|   -6.097536|
|         699|   -6.695591|   -4.285792|   -4.374076|   -6.104157|
|         700|   -6.692513|   -4.288823|   -4.375817|   -6.110512|
|         701|   -6.687115|   -4.291985|   -4.377856|   -6.116598|
|         702|   -6.681175|   -4.295205|   -4.380122|   -6.122197|
|         703|   -6.674292|   -4.298594|   -4.382540|   -6.127275|
|         704|   -6.666671|   -4.302078|   -4.385023|   -6.131847|
|         705|   -6.658453|   -4.305588|   -4.387400|   -6.135797|
|         706|   -6.649631|   -4.309086|   -4.389628|   -6.139072|
|         707|   -6.639099|   -4.312533|   -4.391761|   -6.142425|
|         708|   -6.628688|   -4.315901|   -4.393748|   -6.145950|
|         709|   -6.616938|   -4.319100|   -4.395543|   -6.150613|
|         710|   -6.606281|   -4.321967|   -4.397009|   -6.156470|
|         711|   -6.598213|   -4.324447|   -4.398187|   -6.163840|
|         712|   -6.591524|   -4.326704|   -4.399077|   -6.171240|
|         713|   -6.587424|   -4.328813|   -4.399718|   -6.179227|
|         714|   -6.586379|   -4.331083|   -4.400275|   -6.186463|
|         715|   -6.583935|   -4.333643|   -4.400820|   -6.191938|
|         716|   -6.579889|   -4.336593|   -4.401473|   -6.197009|
|         717|   -6.574989|   -4.340038|   -4.402528|   -6.201330|
|         718|   -6.568910|   -4.343895|   -4.404028|   -6.205349|
|         719|   -6.561943|   -4.348044|   -4.406115|   -6.209000|
|         720|   -6.555042|   -4.352395|   -4.408831|   -6.212050|
|         721|   -6.547853|   -4.356871|   -4.411948|   -6.214325|
|         722|   -6.540349|   -4.361334|   -4.415230|   -6.215540|
|         723|   -6.532762|   -4.365689|   -4.418459|   -6.215779|
|         724|   -6.524241|   -4.369919|   -4.421580|   -6.215119|
|         725|   -6.516180|   -4.374134|   -4.424578|   -6.213887|
|         726|   -6.507608|   -4.378247|   -4.427507|   -6.213533|
|         727|   -6.498266|   -4.382185|   -4.430352|   -6.215293|
|         728|   -6.490769|   -4.385841|   -4.432919|   -6.218733|
|         729|   -6.484125|   -4.388938|   -4.435172|   -6.223570|
|         730|   -6.479407|   -4.391489|   -4.436983|   -6.229425|
|         731|   -6.476730|   -4.393679|   -4.438404|   -6.234889|
|         732|   -6.475801|   -4.395917|   -4.439621|   -6.239291|
|         733|   -6.474536|   -4.398414|   -4.440893|   -6.242091|
|         734|   -6.472349|   -4.401383|   -4.442383|   -6.244210|
|         735|   -6.469155|   -4.404987|   -4.444343|   -6.246182|
|         736|   -6.465462|   -4.409173|   -4.447048|   -6.247724|
|         737|   -6.461360|   -4.413800|   -4.450566|   -6.248493|
|         738|   -6.457129|   -4.418719|   -4.454896|   -6.248545|
|         739|   -6.452720|   -4.423667|   -4.459768|   -6.247724|
|         740|   -6.448451|   -4.428551|   -4.464761|   -6.245822|
|         741|   -6.443619|   -4.433385|   -4.469628|   -6.243488|
|         742|   -6.438674|   -4.438234|   -4.474341|   -6.240247|
|         743|   -6.433372|   -4.443056|   -4.479047|   -6.237711|
|         744|   -6.427330|   -4.447641|   -4.483787|   -6.236530|
|         745|   -6.421842|   -4.451690|   -4.488287|   -6.237514|
|         746|   -6.417508|   -4.454850|   -4.492295|   -6.239923|
|         747|   -6.414311|   -4.457117|   -4.495691|   -6.243328|
|         748|   -6.413064|   -4.458886|   -4.498438|   -6.246569|
|         749|   -6.412581|   -4.460454|   -4.500739|   -6.248476|
|         750|   -6.411933|   -4.462188|   -4.502959|   -6.248848|
|         751|   -6.410404|   -4.464415|   -4.505431|   -6.247832|
|         752|   -6.408134|   -4.467031|   -4.508505|   -6.245809|
|         753|   -6.405139|   -4.469952|   -4.512341|   -6.243073|
|         754|   -6.401602|   -4.473079|   -4.516731|   -6.239897|
|         755|   -6.397755|   -4.476443|   -4.521426|   -6.236117|
|         756|   -6.394001|   -4.480196|   -4.526165|   -6.231616|
|         757|   -6.389839|   -4.484462|   -4.530947|   -6.227415|
|         758|   -6.385899|   -4.489181|   -4.535943|   -6.221936|
|         759|   -6.380900|   -4.493892|   -4.541255|   -6.217718|
|         760|   -6.376880|   -4.498104|   -4.546665|   -6.213305|
|         761|   -6.372063|   -4.501267|   -4.551666|   -6.209461|
|         762|   -6.368123|   -4.503423|   -4.555981|   -6.206460|
|         763|   -6.365468|   -4.505016|   -4.559460|   -6.203278|
|         764|   -6.363278|   -4.506365|   -4.562232|   -6.199216|
|         765|   -6.361732|   -4.507359|   -4.564036|   -6.194337|
|         766|   -6.359887|   -4.507772|   -4.565339|   -6.188428|
|         767|   -6.357386|   -4.507803|   -4.566382|   -6.181984|
|         768|   -6.354100|   -4.507961|   -4.566998|   -6.175316|
|         769|   -6.350543|   -4.508647|   -4.567105|   -6.168941|
|         770|   -6.346922|   -4.510126|   -4.566852|   -6.162957|
|         771|   -6.343568|   -4.512312|   -4.566778|   -6.156849|
|         772|   -6.340283|   -4.514846|   -4.567179|   -6.150953|
|         773|   -6.336569|   -4.517339|   -4.567861|   -6.145013|
|         774|   -6.333549|   -4.519611|   -4.568412|   -6.139639|
|         775|   -6.330826|   -4.521702|   -4.568605|   -6.134179|
|         776|   -6.328273|   -4.523433|   -4.568359|   -6.128639|
|         777|   -6.326037|   -4.524630|   -4.568141|   -6.122788|
|         778|   -6.324215|   -4.525142|   -4.568204|   -6.116565|
|         779|   -6.322454|   -4.525317|   -4.568284|   -6.109851|
|         780|   -6.320268|   -4.525485|   -4.568161|   -6.102871|
|         781|   -6.317691|   -4.526010|   -4.567645|   -6.096003|
|         782|   -6.314989|   -4.526967|   -4.566723|   -6.089264|
|         783|   -6.312195|   -4.528375|   -4.565920|   -6.082863|
|         784|   -6.309430|   -4.530162|   -4.565595|   -6.076520|
|         785|   -6.306322|   -4.532185|   -4.565584|   -6.071043|
|         786|   -6.303914|   -4.534422|   -4.565588|   -6.065979|
|         787|   -6.301420|   -4.536665|   -4.565226|   -6.061449|
|         788|   -6.299303|   -4.538604|   -4.564770|   -6.057371|
|         789|   -6.297436|   -4.540037|   -4.564712|   -6.053756|
|         790|   -6.295771|   -4.541139|   -4.564866|   -6.050460|
|         791|   -6.294119|   -4.542229|   -4.565046|   -6.047634|
|         792|   -6.292449|   -4.543432|   -4.565082|   -6.045245|
|         793|   -6.290711|   -4.544746|   -4.564860|   -6.043140|
|         794|   -6.288896|   -4.546135|   -4.564350|   -6.041318|
|         795|   -6.287386|   -4.547610|   -4.563067|   -6.040000|
|         796|   -6.285943|   -4.549155|   -4.561195|   -6.038795|
|         797|   -6.284564|   -4.550590|   -4.558961|   -6.037890|
|         798|   -6.283093|   -4.551751|   -4.556136|   -6.036967|
|         799|   -6.281764|   -4.552468|   -4.553042|   -6.036058|
|         800|   -6.280575|   -4.552710|   -4.550076|   -6.035148|
|         801|   -6.279436|   -4.552567|   -4.547072|   -6.034308|
|         802|   -6.278410|   -4.552278|   -4.543871|   -6.033521|
|         803|   -6.277457|   -4.551939|   -4.540355|   -6.032766|
|         804|   -6.276509|   -4.551532|   -4.536547|   -6.031895|
|         805|   -6.275508|   -4.550966|   -4.532606|   -6.030977|
|         806|   -6.274702|   -4.550329|   -4.528847|   -6.029939|
|         807|   -6.273703|   -4.549724|   -4.525295|   -6.029031|
|         808|   -6.273052|   -4.549171|   -4.521821|   -6.028021|
|         809|   -6.272228|   -4.548450|   -4.518141|   -6.027123|
|         810|   -6.271647|   -4.547500|   -4.514311|   -6.026170|
|         811|   -6.271069|   -4.546302|   -4.510619|   -6.025304|
|         812|   -6.270610|   -4.544831|   -4.507064|   -6.024508|
|         813|   -6.270227|   -4.543148|   -4.503498|   -6.023793|
|         814|   -6.269916|   -4.541358|   -4.499836|   -6.023201|
|         815|   -6.269734|   -4.539544|   -4.496016|   -6.022717|
|         816|   -6.269605|   -4.537738|   -4.492100|   -6.022391|
|         817|   -6.269496|   -4.535893|   -4.488202|   -6.022088|
|         818|   -6.269519|   -4.534085|   -4.484573|   -6.021762|
|         819|   -6.269615|   -4.532433|   -4.481244|   -6.021758|
|         820|   -6.269848|   -4.530946|   -4.478221|   -6.021689|
|         821|   -6.270178|   -4.529460|   -4.475255|   -6.021759|
|         822|   -6.270636|   -4.527893|   -4.472317|   -6.021843|
|         823|   -6.271160|   -4.526208|   -4.469597|   -6.021948|
|         824|   -6.271874|   -4.524377|   -4.467212|   -6.022073|
|         825|   -6.272684|   -4.522465|   -4.465108|   -6.022294|
|         826|   -6.273567|   -4.520508|   -4.463042|   -6.022612|
|         827|   -6.274569|   -4.518584|   -4.460926|   -6.023052|
|         828|   -6.275626|   -4.516755|   -4.458769|   -6.023527|
|         829|   -6.276736|   -4.515046|   -4.456614|   -6.024030|
|         830|   -6.277884|   -4.513428|   -4.454550|   -6.024619|
|         831|   -6.279091|   -4.511972|   -4.452773|   -6.025181|
|         832|   -6.280488|   -4.510790|   -4.451361|   -6.025812|
|         833|   -6.281802|   -4.509828|   -4.450371|   -6.026592|
|         834|   -6.283364|   -4.508920|   -4.449615|   -6.027348|
|         835|   -6.284889|   -4.507939|   -4.448982|   -6.028214|
|         836|   -6.286604|   -4.506852|   -4.448470|   -6.029136|
|         837|   -6.288375|   -4.505623|   -4.448237|   -6.030093|
|         838|   -6.290251|   -4.504196|   -4.448346|   -6.031110|
|         839|   -6.292244|   -4.502612|   -4.448694|   -6.032193|
|         840|   -6.294268|   -4.500871|   -4.449114|   -6.033275|
|         841|   -6.296422|   -4.499003|   -4.449507|   -6.034386|
|         842|   -6.298583|   -4.497049|   -4.449825|   -6.035520|
|         843|   -6.300805|   -4.495014|   -4.450037|   -6.036489|
|         844|   -6.303077|   -4.492870|   -4.450136|   -6.037422|
|         845|   -6.305319|   -4.490618|   -4.450222|   -6.038182|
|         846|   -6.307740|   -4.488309|   -4.450354|   -6.038640|
|         847|   -6.310106|   -4.485901|   -4.450563|   -6.039009|
|         848|   -6.312529|   -4.483231|   -4.450712|   -6.039095|
|         849|   -6.314984|   -4.480115|   -4.450581|   -6.038899|
|         850|   -6.317477|   -4.476498|   -4.449977|   -6.038285|
|         851|   -6.319908|   -4.472339|   -4.448877|   -6.037395|
|         852|   -6.322456|   -4.467635|   -4.447395|   -6.036057|
|         853|   -6.324903|   -4.462326|   -4.445424|   -6.034363|
|         854|   -6.327368|   -4.456455|   -4.442852|   -6.032289|
|         855|   -6.329762|   -4.450044|   -4.439507|   -6.029816|
|         856|   -6.332080|   -4.443154|   -4.435318|   -6.027002|
|         857|   -6.334316|   -4.435876|   -4.430286|   -6.023825|
|         858|   -6.336440|   -4.428288|   -4.424438|   -6.020304|
|         859|   -6.338504|   -4.420428|   -4.417834|   -6.016525|
|         860|   -6.340408|   -4.412368|   -4.410648|   -6.012486|
|         861|   -6.342377|   -4.404212|   -4.403042|   -6.008148|
|         862|   -6.344217|   -4.396009|   -4.395151|   -6.003719|
|         863|   -6.345931|   -4.387761|   -4.387052|   -5.999155|
|         864|   -6.347684|   -4.379460|   -4.378718|   -5.994500|
|         865|   -6.349306|   -4.371153|   -4.370171|   -5.989726|
|         866|   -6.350934|   -4.362910|   -4.361499|   -5.984906|
|         867|   -6.352448|   -4.354777|   -4.352869|   -5.979992|
|         868|   -6.353970|   -4.346808|   -4.344388|   -5.975070|
|         869|   -6.355459|   -4.339068|   -4.336102|   -5.970116|
|         870|   -6.356917|   -4.331568|   -4.327992|   -5.965129|
|         871|   -6.358399|   -4.324363|   -4.320059|   -5.960169|
|         872|   -6.359907|   -4.317464|   -4.312302|   -5.955231|
|         873|   -6.361440|   -4.310883|   -4.304732|   -5.950306|
|         874|   -6.363121|   -4.304663|   -4.297367|   -5.945412|
|         875|   -6.364826|   -4.298719|   -4.290184|   -5.940557|
|         876|   -6.366717|   -4.293052|   -4.283268|   -5.935717|
|         877|   -6.368803|   -4.287677|   -4.276616|   -5.930856|
|         878|   -6.370749|   -4.282509|   -4.270249|   -5.926092|
|         879|   -6.372990|   -4.277471|   -4.264117|   -5.921229|
|         880|   -6.375111|   -4.272459|   -4.258109|   -5.916297|
|         881|   -6.377147|   -4.267514|   -4.252213|   -5.911284|
|         882|   -6.379156|   -4.262591|   -4.246445|   -5.906223|
|         883|   -6.381082|   -4.257709|   -4.240824|   -5.901063|
|         884|   -6.382669|   -4.252858|   -4.235352|   -5.895885|
|         885|   -6.383813|   -4.248055|   -4.230010|   -5.890708|
|         886|   -6.384750|   -4.243360|   -4.224838|   -5.885572|
|         887|   -6.385281|   -4.238783|   -4.219865|   -5.880593|
|         888|   -6.385484|   -4.234350|   -4.215096|   -5.875687|
|         889|   -6.385403|   -4.230054|   -4.210502|   -5.870839|
|         890|   -6.384956|   -4.225901|   -4.206044|   -5.866051|
|         891|   -6.384094|   -4.221908|   -4.201749|   -5.861394|
|         892|   -6.382941|   -4.218127|   -4.197673|   -5.856862|
|         893|   -6.381460|   -4.214539|   -4.193830|   -5.852549|
|         894|   -6.379574|   -4.211123|   -4.190197|   -5.848482|
|         895|   -6.377688|   -4.207861|   -4.186731|   -5.844660|
|         896|   -6.375694|   -4.204745|   -4.183396|   -5.841074|
|         897|   -6.373816|   -4.201748|   -4.180152|   -5.837721|
|         898|   -6.371920|   -4.198869|   -4.177003|   -5.834523|
|         899|   -6.370029|   -4.196121|   -4.173914|   -5.831498|
|         900|   -6.367877|   -4.193550|   -4.170851|   -5.828604|
|         901|   -6.365243|   -4.191189|   -4.167792|   -5.825789|
|         902|   -6.361971|   -4.189074|   -4.164733|   -5.823023|
|         903|   -6.357859|   -4.187241|   -4.161700|   -5.820289|
|         904|   -6.352761|   -4.185716|   -4.158720|   -5.817514|
|         905|   -6.346366|   -4.184477|   -4.155823|   -5.814617|
|         906|   -6.338212|   -4.183518|   -4.153070|   -5.811485|
|         907|   -6.327656|   -4.182845|   -4.150553|   -5.808084|
|         908|   -6.313530|   -4.182440|   -4.148361|   -5.804248|
|         909|   -6.295643|   -4.182364|   -4.146500|   -5.799955|
|         910|   -6.273205|   -4.182865|   -4.145020|   -5.794965|
|         911|   -6.244357|   -4.184285|   -4.144307|   -5.789068|
|         912|   -6.207684|   -4.187542|   -4.144895|   -5.782380|
|         913|   -6.162235|   -4.194377|   -4.147764|   -5.775571|
|         914|   -6.121665|   -4.208347|   -4.153902|   -5.775440|
|         915|   -6.109039|   -4.230722|   -4.164788|   -5.782307|
|         916|   -6.111739|   -4.255319|   -4.181490|   -5.793856|
|         917|   -6.117449|   -4.279345|   -4.204590|   -5.810739|
|         918|   -6.126241|   -4.299558|   -4.234297|   -5.832146|
|         919|   -6.143490|   -4.308663|   -4.270044|   -5.854973|
|         920|   -6.181700|   -4.312419|   -4.300477|   -5.879074|
|         921|   -6.202978|   -4.332074|   -4.327898|   -5.912644|
|         922|   -6.224168|   -4.364096|   -4.360483|   -5.938965|
|         923|   -6.273598|   -4.387055|   -4.383301|   -5.953867|
|         924|   -6.322500|   -4.399609|   -4.401213|   -5.966668|
|         925|   -6.348959|   -4.409680|   -4.420902|   -5.981592|
|         926|   -6.363249|   -4.417972|   -4.442521|   -6.001061|
|         927|   -6.372803|   -4.424264|   -4.463141|   -6.022253|
|         928|   -6.380677|   -4.428465|   -4.484945|   -6.049576|
|         929|   -6.386227|   -4.431355|   -4.503052|   -6.085590|
|         930|   -6.390138|   -4.433459|   -4.516978|   -6.126676|
|         931|   -6.392368|   -4.435120|   -4.526877|   -6.165636|
|         932|   -6.394099|   -4.436590|   -4.533355|   -6.195315|
|         933|   -6.395298|   -4.438019|   -4.537235|   -6.214022|
|         934|   -6.395604|   -4.439304|   -4.539277|   -6.225013|
|         935|   -6.394835|   -4.440177|   -4.540058|   -6.231745|
|         936|   -6.393488|   -4.440451|   -4.540038|   -6.236142|
|         937|   -6.392135|   -4.440244|   -4.539640|   -6.239279|
|         938|   -6.391203|   -4.439874|   -4.539196|   -6.241493|
|         939|   -6.390827|   -4.439543|   -4.538706|   -6.243206|
|         940|   -6.390997|   -4.439212|   -4.538042|   -6.244568|
|         941|   -6.391668|   -4.438792|   -4.537297|   -6.245565|
|         942|   -6.392883|   -4.438294|   -4.536674|   -6.246070|
|         943|   -6.394510|   -4.437761|   -4.536148|   -6.246149|
|         944|   -6.396558|   -4.437241|   -4.535650|   -6.245872|
|         945|   -6.398948|   -4.436707|   -4.535104|   -6.245380|
|         946|   -6.401570|   -4.436097|   -4.534553|   -6.244730|
|         947|   -6.404482|   -4.435461|   -4.534143|   -6.244085|
|         948|   -6.407517|   -4.434910|   -4.533916|   -6.243698|
|         949|   -6.410658|   -4.434444|   -4.533744|   -6.243464|
|         950|   -6.413739|   -4.433936|   -4.533540|   -6.243362|
|         951|   -6.416726|   -4.433308|   -4.533369|   -6.243441|
|         952|   -6.419566|   -4.432609|   -4.533297|   -6.243449|
|         953|   -6.422182|   -4.431929|   -4.533270|   -6.243445|
|         954|   -6.424521|   -4.431266|   -4.533202|   -6.243215|
|         955|   -6.426515|   -4.430574|   -4.533053|   -6.243145|
|         956|   -6.428243|   -4.429872|   -4.532894|   -6.242924|
|         957|   -6.429618|   -4.429269|   -4.532819|   -6.242848|
|         958|   -6.430729|   -4.428845|   -4.532813|   -6.242468|
|         959|   -6.431418|   -4.428569|   -4.532785|   -6.242099|
|         960|   -6.431747|   -4.428351|   -4.532701|   -6.241570|
|         961|   -6.431718|   -4.428187|   -4.532625|   -6.241214|
|         962|   -6.431369|   -4.428140|   -4.532517|   -6.240878|
|         963|   -6.430695|   -4.428234|   -4.532301|   -6.240599|
|         964|   -6.429797|   -4.428424|   -4.532023|   -6.240364|
|         965|   -6.428771|   -4.428659|   -4.531746|   -6.240295|
|         966|   -6.427777|   -4.428963|   -4.531540|   -6.240259|
|         967|   -6.426856|   -4.429397|   -4.531434|   -6.240339|
|         968|   -6.426005|   -4.429965|   -4.531380|   -6.240558|
|         969|   -6.425249|   -4.430617|   -4.531298|   -6.240942|
|         970|   -6.424598|   -4.431297|   -4.531164|   -6.241534|
|         971|   -6.424106|   -4.432018|   -4.531010|   -6.242252|
|         972|   -6.423776|   -4.432842|   -4.530843|   -6.243049|
|         973|   -6.423620|   -4.433768|   -4.530625|   -6.243980|
|         974|   -6.423649|   -4.434757|   -4.530305|   -6.245043|
|         975|   -6.423895|   -4.435770|   -4.529898|   -6.246231|
|         976|   -6.424401|   -4.436818|   -4.529458|   -6.247514|
|         977|   -6.425174|   -4.437928|   -4.529011|   -6.248845|
[...]
|        7299|   -8.861136|   -6.463991|   -6.439660|   -6.442050|
|        7300|   -8.859712|   -6.464668|   -6.440772|   -6.442040|
|        7301|   -8.858315|   -6.465415|   -6.441875|   -6.442029|
|        7302|   -8.856956|   -6.466228|   -6.442926|   -6.442019|
|        7303|   -8.855625|   -6.467064|   -6.443905|   -6.442010|
|        7304|   -8.854418|   -6.467899|   -6.444781|   -6.442000|
|        7305|   -8.853333|   -6.468673|   -6.445571|   -6.441991|
|        7306|   -8.852323|   -6.469388|   -6.446219|   -6.441982|
|        7307|   -8.851456|   -6.470024|   -6.446714|   -6.441973|
|        7308|   -8.850668|   -6.470592|   -6.447029|   -6.441965|
|        7309|   -8.849948|   -6.471098|   -6.447155|   -6.441957|
|        7310|   -8.849240|   -6.471536|   -6.447099|   -6.441949|
|        7311|   -8.848494|   -6.471932|   -6.446859|   -6.441942|
|        7312|   -8.847745|   -6.472253|   -6.446502|   -6.441936|
|        7313|   -8.846977|   -6.472542|   -6.446029|   -6.441929|
|        7314|   -8.846159|   -6.472813|   -6.445481|   -6.441923|
|        7315|   -8.845402|   -6.473095|   -6.444875|   -6.441917|
|        7316|   -8.844737|   -6.473373|   -6.444276|   -6.441911|
|        7317|   -8.844048|   -6.473667|   -6.443692|   -6.441905|
|        7318|   -8.843412|   -6.473941|   -6.443180|   -6.441899|
|        7319|   -8.842793|   -6.474215|   -6.442727|   -6.441893|
|        7320|   -8.842199|   -6.474479|   -6.442338|   -6.441888|
|        7321|   -8.841592|   -6.474759|   -6.441980|   -6.441882|
|        7322|   -8.841017|   -6.474988|   -6.441678|   -6.441877|
|        7323|   -8.840416|   -6.475198|   -6.441374|   -6.441872|
|        7324|   -8.839921|   -6.475372|   -6.441050|   -6.441867|
|        7325|   -8.839456|   -6.475508|   -6.440687|   -6.441862|
|        7326|   -8.839094|   -6.475552|   -6.440294|   -6.441857|
|        7327|   -8.838820|   -6.475480|   -6.439866|   -6.441853|
|        7328|   -8.838537|   -6.475279|   -6.439401|   -6.441848|
|        7329|   -8.838313|   -6.474948|   -6.438893|   -6.441843|
|        7330|   -8.837986|   -6.474530|   -6.438328|   -6.441839|
|        7331|   -8.837724|   -6.474043|   -6.437738|   -6.441834|
|        7332|   -8.837479|   -6.473495|   -6.437169|   -6.441829|
|        7333|   -8.837333|   -6.472890|   -6.436686|   -6.441824|
|        7334|   -8.837236|   -6.472377|   -6.436238|   -6.441818|
|        7335|   -8.837354|   -6.471801|   -6.436007|   -6.441812|
|        7336|   -8.837529|   -6.471334|   -6.435880|   -6.441806|
|        7337|   -8.837777|   -6.470858|   -6.436018|   -6.441800|
|        7338|   -8.837962|   -6.470498|   -6.436303|   -6.441793|
|        7339|   -8.838296|   -6.470243|   -6.436777|   -6.441786|
|        7340|   -8.838549|   -6.470113|   -6.437409|   -6.441779|
|        7341|   -8.838886|   -6.470094|   -6.438203|   -6.441771|
|        7342|   -8.839234|   -6.470219|   -6.439113|   -6.441764|
|        7343|   -8.839562|   -6.470431|   -6.440149|   -6.441756|
|        7344|   -8.839859|   -6.470773|   -6.441245|   -6.441749|
|        7345|   -8.840192|   -6.471212|   -6.442388|   -6.441741|
|        7346|   -8.840530|   -6.471763|   -6.443523|   -6.441734|
|        7347|   -8.840922|   -6.472366|   -6.444646|   -6.441726|
|        7348|   -8.841323|   -6.473027|   -6.445706|   -6.441719|
|        7349|   -8.841791|   -6.473697|   -6.446683|   -6.441712|
|        7350|   -8.842366|   -6.474346|   -6.447559|   -6.441705|
|        7351|   -8.843039|   -6.474924|   -6.448339|   -6.441699|
|        7352|   -8.843840|   -6.475431|   -6.448972|   -6.441693|
|        7353|   -8.844734|   -6.475876|   -6.449430|   -6.441687|
|        7354|   -8.845708|   -6.476237|   -6.449722|   -6.441681|
|        7355|   -8.846752|   -6.476525|   -6.449830|   -6.441676|
|        7356|   -8.847736|   -6.476784|   -6.449732|   -6.441672|
|        7357|   -8.848749|   -6.476966|   -6.449491|   -6.441668|
|        7358|   -8.849717|   -6.477097|   -6.449124|   -6.441664|
|        7359|   -8.850703|   -6.477182|   -6.448679|   -6.441660|
|        7360|   -8.851578|   -6.477279|   -6.448138|   -6.441657|
|        7361|   -8.852622|   -6.477372|   -6.447582|   -6.441653|
|        7362|   -8.853607|   -6.477481|   -6.447019|   -6.441650|
|        7363|   -8.854678|   -6.477572|   -6.446514|   -6.441647|
|        7364|   -8.855741|   -6.477672|   -6.446061|   -6.441644|
|        7365|   -8.856848|   -6.477766|   -6.445677|   -6.441642|
|        7366|   -8.857967|   -6.477882|   -6.445332|   -6.441639|
|        7367|   -8.859105|   -6.477949|   -6.445061|   -6.441637|
|        7368|   -8.860235|   -6.478000|   -6.444806|   -6.441635|
|        7369|   -8.861356|   -6.478024|   -6.444544|   -6.441632|
|        7370|   -8.862593|   -6.478021|   -6.444251|   -6.441630|
|        7371|   -8.863860|   -6.477953|   -6.443928|   -6.441628|
|        7372|   -8.865204|   -6.477795|   -6.443565|   -6.441626|
|        7373|   -8.866621|   -6.477509|   -6.443170|   -6.441624|
|        7374|   -8.868029|   -6.477099|   -6.442734|   -6.441622|
|        7375|   -8.869473|   -6.476573|   -6.442250|   -6.441620|
|        7376|   -8.870800|   -6.475967|   -6.441716|   -6.441618|
|        7377|   -8.872227|   -6.475308|   -6.441166|   -6.441617|
|        7378|   -8.873721|   -6.474619|   -6.440638|   -6.441614|
|        7379|   -8.875332|   -6.473906|   -6.440196|   -6.441612|
|        7380|   -8.876943|   -6.473197|   -6.439873|   -6.441610|
|        7381|   -8.878748|   -6.472480|   -6.439737|   -6.441607|
|        7382|   -8.880552|   -6.471827|   -6.439769|   -6.441604|
|        7383|   -8.882594|   -6.471303|   -6.439942|   -6.441601|
|        7384|   -8.884644|   -6.470847|   -6.440329|   -6.441597|
|        7385|   -8.886710|   -6.470492|   -6.440898|   -6.441593|
|        7386|   -8.888698|   -6.470256|   -6.441628|   -6.441590|
|        7387|   -8.890717|   -6.470168|   -6.442483|   -6.441586|
|        7388|   -8.892774|   -6.470173|   -6.443484|   -6.441581|
|        7389|   -8.894791|   -6.470296|   -6.444574|   -6.441577|
|        7390|   -8.896818|   -6.470536|   -6.445725|   -6.441573|
|        7391|   -8.898889|   -6.470895|   -6.446894|   -6.441569|
|        7392|   -8.900970|   -6.471322|   -6.448073|   -6.441564|
|        7393|   -8.903093|   -6.471817|   -6.449210|   -6.441560|
|        7394|   -8.905205|   -6.472352|   -6.450276|   -6.441557|
|        7395|   -8.907415|   -6.472894|   -6.451246|   -6.441553|
|        7396|   -8.909802|   -6.473385|   -6.452127|   -6.441550|
|        7397|   -8.912220|   -6.473817|   -6.452883|   -6.441548|
|        7398|   -8.914797|   -6.474174|   -6.453490|   -6.441545|
|        7399|   -8.917511|   -6.474466|   -6.453916|   -6.441543|
|        7400|   -8.920301|   -6.474691|   -6.454161|   -6.441542|
|        7401|   -8.923109|   -6.474861|   -6.454211|   -6.441541|
|        7402|   -8.925929|   -6.474969|   -6.454092|   -6.441540|
|        7403|   -8.928677|   -6.475012|   -6.453829|   -6.441540|
|        7404|   -8.931415|   -6.475008|   -6.453463|   -6.441540|
|        7405|   -8.934057|   -6.475034|   -6.452959|   -6.441541|
|        7406|   -8.936814|   -6.475025|   -6.452435|   -6.441542|
|        7407|   -8.939644|   -6.475016|   -6.451901|   -6.441543|
|        7408|   -8.942492|   -6.475013|   -6.451386|   -6.441544|
|        7409|   -8.945317|   -6.475061|   -6.450885|   -6.441545|
|        7410|   -8.948296|   -6.475070|   -6.450480|   -6.441547|
|        7411|   -8.951199|   -6.475067|   -6.450152|   -6.441548|
|        7412|   -8.954083|   -6.475057|   -6.449874|   -6.441550|
|        7413|   -8.957006|   -6.475062|   -6.449613|   -6.441552|
|        7414|   -8.959904|   -6.475025|   -6.449380|   -6.441554|
|        7415|   -8.962827|   -6.474970|   -6.449129|   -6.441556|
|        7416|   -8.965829|   -6.474867|   -6.448851|   -6.441559|
|        7417|   -8.968858|   -6.474705|   -6.448526|   -6.441561|
|        7418|   -8.971975|   -6.474452|   -6.448159|   -6.441564|
|        7419|   -8.975081|   -6.474067|   -6.447764|   -6.441566|
|        7420|   -8.978228|   -6.473568|   -6.447323|   -6.441569|
|        7421|   -8.981300|   -6.472965|   -6.446837|   -6.441571|
|        7422|   -8.984373|   -6.472319|   -6.446298|   -6.441574|
|        7423|   -8.987531|   -6.471599|   -6.445782|   -6.441576|
|        7424|   -8.990836|   -6.470883|   -6.445287|   -6.441578|
|        7425|   -8.994177|   -6.470116|   -6.444923|   -6.441580|
|        7426|   -8.997727|   -6.469440|   -6.444625|   -6.441582|
|        7427|   -9.001469|   -6.468735|   -6.444557|   -6.441584|
|        7428|   -9.005182|   -6.468114|   -6.444638|   -6.441585|
|        7429|   -9.009164|   -6.467583|   -6.444908|   -6.441586|
|        7430|   -9.013163|   -6.467165|   -6.445348|   -6.441587|
|        7431|   -9.017190|   -6.466849|   -6.445973|   -6.441588|
|        7432|   -9.021127|   -6.466658|   -6.446749|   -6.441589|
|        7433|   -9.025065|   -6.466576|   -6.447673|   -6.441590|
|        7434|   -9.029008|   -6.466623|   -6.448700|   -6.441591|
|        7435|   -9.032860|   -6.466774|   -6.449817|   -6.441591|
|        7436|   -9.036773|   -6.467056|   -6.450975|   -6.441592|
|        7437|   -9.040656|   -6.467412|   -6.452164|   -6.441593|
|        7438|   -9.044528|   -6.467866|   -6.453320|   -6.441594|
|        7439|   -9.048429|   -6.468367|   -6.454435|   -6.441596|
|        7440|   -9.052298|   -6.468910|   -6.455464|   -6.441597|
|        7441|   -9.056383|   -6.469432|   -6.456404|   -6.441599|
|        7442|   -9.060554|   -6.469907|   -6.457241|   -6.441601|
|        7443|   -9.064865|   -6.470316|   -6.457942|   -6.441603|
|        7444|   -9.069325|   -6.470669|   -6.458468|   -6.441606|
|        7445|   -9.073901|   -6.470950|   -6.458817|   -6.441609|
|        7446|   -9.078613|   -6.471166|   -6.458982|   -6.441613|
|        7447|   -9.083207|   -6.471317|   -6.458968|   -6.441617|
|        7448|   -9.087744|   -6.471427|   -6.458776|   -6.441621|
|        7449|   -9.092114|   -6.471499|   -6.458438|   -6.441625|
|        7450|   -9.096601|   -6.471580|   -6.457967|   -6.441630|
|        7451|   -9.100860|   -6.471609|   -6.457452|   -6.441636|
|        7452|   -9.105365|   -6.471645|   -6.456896|   -6.441641|
|        7453|   -9.109955|   -6.471681|   -6.456351|   -6.441647|
|        7454|   -9.114512|   -6.471730|   -6.455828|   -6.441652|
|        7455|   -9.118947|   -6.471783|   -6.455363|   -6.441658|
|        7456|   -9.123554|   -6.471858|   -6.454948|   -6.441664|
|        7457|   -9.128017|   -6.471909|   -6.454617|   -6.441671|
|        7458|   -9.132378|   -6.471957|   -6.454330|   -6.441677|
|        7459|   -9.136655|   -6.471986|   -6.454072|   -6.441683|
|        7460|   -9.140819|   -6.472012|   -6.453805|   -6.441690|
|        7461|   -9.145055|   -6.471987|   -6.453531|   -6.441697|
|        7462|   -9.149145|   -6.471928|   -6.453208|   -6.441703|
|        7463|   -9.153134|   -6.471796|   -6.452839|   -6.441710|
|        7464|   -9.157187|   -6.471564|   -6.452429|   -6.441716|
|        7465|   -9.160927|   -6.471211|   -6.451986|   -6.441723|
|        7466|   -9.164689|   -6.470751|   -6.451496|   -6.441729|
|        7467|   -9.168022|   -6.470207|   -6.450965|   -6.441736|
|        7468|   -9.171806|   -6.469631|   -6.450397|   -6.441742|
|        7469|   -9.175499|   -6.469000|   -6.449866|   -6.441748|
|        7470|   -9.179670|   -6.468382|   -6.449373|   -6.441753|
|        7471|   -9.183363|   -6.467742|   -6.449013|   -6.441759|
|        7472|   -9.187269|   -6.467112|   -6.448815|   -6.441764|
|        7473|   -9.191526|   -6.466542|   -6.448774|   -6.441769|
|        7474|   -9.196573|   -6.466124|   -6.448847|   -6.441774|
|        7475|   -9.200937|   -6.465729|   -6.449165|   -6.441778|
|        7476|   -9.205411|   -6.465433|   -6.449664|   -6.441783|
|        7477|   -9.209406|   -6.465248|   -6.450333|   -6.441787|
|        7478|   -9.213524|   -6.465199|   -6.451132|   -6.441791|
|        7479|   -9.217429|   -6.465261|   -6.452070|   -6.441795|
|        7480|   -9.221190|   -6.465455|   -6.453097|   -6.441799|
|        7481|   -9.224410|   -6.465742|   -6.454212|   -6.441803|
|        7482|   -9.227615|   -6.466145|   -6.455355|   -6.441807|
|        7483|   -9.230501|   -6.466635|   -6.456503|   -6.441810|
|        7484|   -9.233340|   -6.467213|   -6.457611|   -6.441814|
|        7485|   -9.235844|   -6.467827|   -6.458669|   -6.441818|
|        7486|   -9.238260|   -6.468467|   -6.459635|   -6.441822|
|        7487|   -9.240804|   -6.469071|   -6.460508|   -6.441826|
|        7488|   -9.243179|   -6.469626|   -6.461264|   -6.441831|
|        7489|   -9.245487|   -6.470110|   -6.461871|   -6.441836|
|        7490|   -9.247949|   -6.470541|   -6.462291|   -6.441841|
|        7491|   -9.250032|   -6.470907|   -6.462530|   -6.441846|
|        7492|   -9.252322|   -6.471249|   -6.462549|   -6.441852|
|        7493|   -9.254124|   -6.471512|   -6.462414|   -6.441858|
|        7494|   -9.255434|   -6.471730|   -6.462118|   -6.441864|
|        7495|   -9.256213|   -6.471887|   -6.461729|   -6.441871|
|        7496|   -9.257629|   -6.472091|   -6.461180|   -6.441878|
|        7497|   -9.258010|   -6.472239|   -6.460627|   -6.441885|
|        7498|   -9.259027|   -6.472385|   -6.460052|   -6.441892|
|        7499|   -9.259798|   -6.472550|   -6.459487|   -6.441899|
|        7500|   -9.260534|   -6.472758|   -6.458935|   -6.441907|
|        7501|   -9.260802|   -6.472937|   -6.458476|   -6.441914|
|        7502|   -9.260705|   -6.473111|   -6.458087|   -6.441922|
|        7503|   -9.260464|   -6.473286|   -6.457750|   -6.441929|
|        7504|   -9.260128|   -6.473477|   -6.457439|   -6.441937|
|        7505|   -9.259174|   -6.473616|   -6.457165|   -6.441945|
|        7506|   -9.257698|   -6.473735|   -6.456873|   -6.441953|
|        7507|   -9.256227|   -6.473818|   -6.456548|   -6.441961|
|        7508|   -9.254275|   -6.473855|   -6.456172|   -6.441969|
|        7509|   -9.252035|   -6.473803|   -6.455754|   -6.441978|
|        7510|   -9.249572|   -6.473646|   -6.455299|   -6.441986|
|        7511|   -9.246851|   -6.473370|   -6.454812|   -6.441993|
|        7512|   -9.244170|   -6.473007|   -6.454280|   -6.442001|
|        7513|   -9.241359|   -6.472572|   -6.453719|   -6.442009|
|        7514|   -9.239122|   -6.472105|   -6.453146|   -6.442016|
|        7515|   -9.236830|   -6.471597|   -6.452629|   -6.442023|
|        7516|   -9.234644|   -6.471076|   -6.452199|   -6.442030|
|        7517|   -9.232080|   -6.470566|   -6.451902|   -6.442036|
|        7518|   -9.230553|   -6.470125|   -6.451716|   -6.442043|
|        7519|   -9.228432|   -6.469734|   -6.451718|   -6.442049|
|        7520|   -9.226722|   -6.469429|   -6.451886|   -6.442054|
|        7521|   -9.224636|   -6.469217|   -6.452248|   -6.442060|
|        7522|   -9.222595|   -6.469126|   -6.452769|   -6.442066|
|        7523|   -9.219949|   -6.469126|   -6.453475|   -6.442071|
|        7524|   -9.217165|   -6.469249|   -6.454313|   -6.442076|
|        7525|   -9.214275|   -6.469489|   -6.455271|   -6.442081|
|        7526|   -9.211415|   -6.469875|   -6.456300|   -6.442086|
|        7527|   -9.208082|   -6.470341|   -6.457412|   -6.442091|
|        7528|   -9.204690|   -6.470915|   -6.458540|   -6.442096|
|        7529|   -9.201120|   -6.471583|   -6.459652|   -6.442101|
|        7530|   -9.197733|   -6.472324|   -6.460718|   -6.442106|
|        7531|   -9.194059|   -6.473090|   -6.461722|   -6.442111|
|        7532|   -9.190658|   -6.473858|   -6.462628|   -6.442117|
|        7533|   -9.187256|   -6.474575|   -6.463438|   -6.442122|
|        7534|   -9.183795|   -6.475240|   -6.464109|   -6.442128|
|        7535|   -9.180123|   -6.475820|   -6.464621|   -6.442134|
|        7536|   -9.176579|   -6.476363|   -6.464925|   -6.442140|
|        7537|   -9.173022|   -6.476826|   -6.465054|   -6.442147|
|        7538|   -9.169519|   -6.477269|   -6.464964|   -6.442153|
|        7539|   -9.165927|   -6.477647|   -6.464710|   -6.442160|
|        7540|   -9.161929|   -6.477941|   -6.464347|   -6.442168|
|        7541|   -9.158045|   -6.478199|   -6.463890|   -6.442175|
|        7542|   -9.154270|   -6.478463|   -6.463330|   -6.442183|
|        7543|   -9.150906|   -6.478776|   -6.462690|   -6.442191|
|        7544|   -9.147587|   -6.479043|   -6.462095|   -6.442199|
|        7545|   -9.144157|   -6.479308|   -6.461534|   -6.442207|
|        7546|   -9.140434|   -6.479575|   -6.461032|   -6.442216|
|        7547|   -9.137040|   -6.479869|   -6.460576|   -6.442224|
|        7548|   -9.133540|   -6.480153|   -6.460196|   -6.442233|
|        7549|   -9.130036|   -6.480448|   -6.459858|   -6.442241|
|        7550|   -9.126358|   -6.480702|   -6.459573|   -6.442250|
|        7551|   -9.122560|   -6.480942|   -6.459285|   -6.442259|
|        7552|   -9.118744|   -6.481142|   -6.458981|   -6.442267|
|        7553|   -9.114899|   -6.481315|   -6.458630|   -6.442276|
|        7554|   -9.110966|   -6.481407|   -6.458238|   -6.442284|
|        7555|   -9.107191|   -6.481415|   -6.457798|   -6.442292|
|        7556|   -9.103325|   -6.481298|   -6.457328|   -6.442300|
|        7557|   -9.099694|   -6.481071|   -6.456821|   -6.442308|
|        7558|   -9.096076|   -6.480751|   -6.456280|   -6.442316|
|        7559|   -9.092875|   -6.480372|   -6.455715|   -6.442323|
|        7560|   -9.089850|   -6.479945|   -6.455170|   -6.442331|
|        7561|   -9.087084|   -6.479520|   -6.454660|   -6.442338|
|        7562|   -9.084147|   -6.479061|   -6.454274|   -6.442344|
|        7563|   -9.081542|   -6.478682|   -6.453963|   -6.442351|
|        7564|   -9.078843|   -6.478281|   -6.453875|   -6.442357|
|        7565|   -9.076302|   -6.478014|   -6.453893|   -6.442362|
|        7566|   -9.073555|   -6.477768|   -6.454158|   -6.442368|
|        7567|   -9.070929|   -6.477661|   -6.454560|   -6.442373|
|        7568|   -9.068324|   -6.477639|   -6.455154|   -6.442378|
|        7569|   -9.065571|   -6.477754|   -6.455883|   -6.442383|
|        7570|   -9.062784|   -6.477971|   -6.456758|   -6.442388|
|        7571|   -9.059965|   -6.478322|   -6.457724|   -6.442392|
|        7572|   -9.057081|   -6.478781|   -6.458775|   -6.442397|
|        7573|   -9.054297|   -6.479371|   -6.459862|   -6.442401|
|        7574|   -9.051517|   -6.480042|   -6.460974|   -6.442405|
|        7575|   -9.048800|   -6.480807|   -6.462054|   -6.442409|
|        7576|   -9.046164|   -6.481621|   -6.463090|   -6.442414|
|        7577|   -9.043604|   -6.482464|   -6.464046|   -6.442418|
|        7578|   -9.041210|   -6.483270|   -6.464914|   -6.442423|
|        7579|   -9.038825|   -6.484022|   -6.465671|   -6.442428|
|        7580|   -9.036459|   -6.484697|   -6.466278|   -6.442432|
|        7581|   -9.034068|   -6.485309|   -6.466699|   -6.442438|
|        7582|   -9.031627|   -6.485847|   -6.466933|   -6.442443|
|        7583|   -9.029290|   -6.486361|   -6.466950|   -6.442449|
|        7584|   -9.026956|   -6.486778|   -6.466815|   -6.442455|
|        7585|   -9.024572|   -6.487136|   -6.466523|   -6.442461|
|        7586|   -9.022208|   -6.487429|   -6.466122|   -6.442468|
|        7587|   -9.020054|   -6.487779|   -6.465559|   -6.442474|
|        7588|   -9.017871|   -6.488050|   -6.464998|   -6.442481|
|        7589|   -9.015851|   -6.488307|   -6.464422|   -6.442488|
|        7590|   -9.013860|   -6.488585|   -6.463846|   -6.442495|
|        7591|   -9.011950|   -6.488921|   -6.463275|   -6.442502|
|        7592|   -9.010105|   -6.489214|   -6.462800|   -6.442509|
|        7593|   -9.008130|   -6.489496|   -6.462405|   -6.442516|
|        7594|   -9.006152|   -6.489776|   -6.462067|   -6.442524|
|        7595|   -9.004245|   -6.490080|   -6.461754|   -6.442531|
|        7596|   -9.002306|   -6.490327|   -6.461489|   -6.442539|
