scsub> Executing:  'cd /home/hem1dev/Codes/SU2_Github_Mark_Test/SU2/Venturi'


WARNING: CONV_CRITERIA is deprecated. SU2 will choose the criteria automatically based on the CONV_FIELD.
That is, RESIDUAL for any RMS_* BGS_* value, and CAUCHY for coefficients such as DRAG etc.


-------------------------------------------------------------------------
|    ___ _   _ ___                                                      |
|   / __| | | |_  )   Release 7.1.1 "Blackbird"                         |
|   \__ \ |_| |/ /                                                      |
|   |___/\___//___|   Suite (Computational Fluid Dynamics Code)         |
|                                                                       |
-------------------------------------------------------------------------
| SU2 Project Website: https://su2code.github.io                        |
|                                                                       |
| The SU2 Project is maintained by the SU2 Foundation                   |
| (http://su2foundation.org)                                            |
-------------------------------------------------------------------------
| Copyright 2012-2021, SU2 Contributors                                 |
|                                                                       |
| SU2 is free software; you can redistribute it and/or                  |
| modify it under the terms of the GNU Lesser General Public            |
| License as published by the Free Software Foundation; either          |
| version 2.1 of the License, or (at your option) any later version.    |
|                                                                       |
| SU2 is distributed in the hope that it will be useful,                |
| but WITHOUT ANY WARRANTY; without even the implied warranty of        |
| MERCHANTABILITY or FITNESS FOR A PARTICULAR PURPOSE. See the GNU      |
| Lesser General Public License for more details.                       |
|                                                                       |
| You should have received a copy of the GNU Lesser General Public      |
| License along with SU2. If not, see <http://www.gnu.org/licenses/>.   |
-------------------------------------------------------------------------


WARNING: CONV_CRITERIA is deprecated. SU2 will choose the criteria automatically based on the CONV_FIELD.
That is, RESIDUAL for any RMS_* BGS_* value, and CAUCHY for coefficients such as DRAG etc.


Parsing config file for zone 0


WARNING: CONV_CRITERIA is deprecated. SU2 will choose the criteria automatically based on the CONV_FIELD.
That is, RESIDUAL for any RMS_* BGS_* value, and CAUCHY for coefficients such as DRAG etc.


----------------- Physical Case Definition ( Zone 0 ) -------------------
Incompressible RANS equations.
Turbulence model: Menter's SST
Hybrid RANS/LES: No Hybrid RANS/LES
No restart solution, use the values at infinity (freestream).
Dimensional simulation.
The reference area is 1 m^2.
The semi-span will be computed using the max y(3D) value.
The reference length is 1 m.
Input mesh file name: c6_cms_venturi.cgns

--------------- Space Numerical Integration ( Zone 0 ) ------------------
Flux difference splitting (FDS) upwind scheme for the flow inviscid terms.
Second order integration in space, with slope limiter.
No slope-limiting method. 
Average of gradients with correction (viscous flow terms).
Average of gradients with correction (viscous turbulence terms).
Gradient for upwind reconstruction: inverse-distance weighted Least-Squares.
Gradient for viscous and source terms: inverse-distance weighted Least-Squares.

--------------- Time Numerical Integration  ( Zone 0 ) ------------------
Local time stepping (steady state simulation).
Euler implicit method for the flow equations.
FGMRES is used for solving the linear system.
Using a ILU(0) preconditioning.
Convergence criteria of the linear solver: 1e-08.
Max number of linear iterations: 20.
No CFL adaptation.
Courant-Friedrichs-Lewy number:      100
Euler implicit time integration for the turbulence model.

------------------ Convergence Criteria  ( Zone 0 ) ---------------------
Maximum number of solver subiterations: 10000.
Begin convergence monitoring at iteration 10.
Residual minimum value: 1e-10.
Cauchy series min. value: 1e-06.
Number of Cauchy elements: 100.
Begin windowed time average at iteration 0.

-------------------- Output Information ( Zone 0 ) ----------------------
Writing solution files every 1000 iterations.
Writing the convergence history file every 1 inner iterations.
Writing the screen convergence history every 1 inner iterations.
The tabular file format is CSV (.csv).
Convergence history file name: history_test.
Forces breakdown file name: forces_breakdown.dat.
Surface file name: surface_flow_venturi_mixturedensity_30kW_fine_test.
Volume file name: flow_venturi_mixturedensity_30kW_fine_test.
Restart file name: restart_venturi_mixturedensity_30kW_fine_test.dat.

------------- Config File Boundary Information ( Zone 0 ) ---------------
+-----------------------------------------------------------------------+
|                        Marker Type|                        Marker Name|
+-----------------------------------------------------------------------+
|                     Symmetry plane|                               axis|
+-----------------------------------------------------------------------+
|                     Inlet boundary|                          gas_inlet|
|                                   |                          air_inlet|
+-----------------------------------------------------------------------+
|                    Outlet boundary|                             outlet|
+-----------------------------------------------------------------------+
|                     Heat flux wall|            wall-component1-surface|
+-----------------------------------------------------------------------+

-------------------- Output Preprocessing ( Zone 0 ) --------------------
Screen output fields: INNER_ITER, RMS_PRESSURE, RMS_VELOCITY-X, RMS_VELOCITY-Y, RMS_PASSIVE_SCALAR
History output group(s): RMS_RES, AERO_COEFF, FLOW_COEFF
Convergence field(s): RMS_PRESSURE, RMS_VELOCITY-X, RMS_VELOCITY-Y, RMS_TKE
Warning: No (valid) fields chosen for time convergence monitoring. Time convergence monitoring inactive.
  Info: Ignoring the following volume output fields/groups:
  SOURCE, LOOKUP
Volume output fields: DENSITY, SOLUTION, PRIMITIVE, RESIDUAL, COORDINATES

------------------- Geometry Preprocessing ( Zone 0 ) -------------------
Reading the CGNS file: c6_cms_venturi.cgns.
CGNS file contains 1 database(s).
Database 1, Base:  cell dimension of 2, physical dimension of 2.
1 total zone(s).
Zone 1, Zone: 292948 total vertices, 295883 total elements.
Loading CoordinateX values into linear partitions.
Loading CoordinateY values into linear partitions.
Distributing connectivity across all ranks.
Number of connectivity sections is 6.
Section gas_inlet contains 51 elements of type Mixed.
Section air_inlet contains 150 elements of type Mixed.
Section outlet contains 157 elements of type Mixed.
Section axis contains 1721 elements of type Mixed.
Section component1-surface contains 290183 elements of type Mixed.
Section wall-component1-surface contains 3621 elements of type Mixed.
Loading surface section gas_inlet from file.
Loading surface section air_inlet from file.
Loading surface section outlet from file.
Loading surface section axis from file.
Loading volume section component1-surface from file.
Loading surface section wall-component1-surface from file.
Two dimensional problem.
292948 grid points before partitioning.
290183 volume elements before partitioning.
5 surface markers.
51 boundary elements in index 0 (Marker = gas_inlet).
150 boundary elements in index 1 (Marker = air_inlet).
157 boundary elements in index 2 (Marker = outlet).
1721 boundary elements in index 3 (Marker = axis).
3621 boundary elements in index 4 (Marker = wall-component1-surface).
Executing the partitioning functions.
Building the graph adjacency structure.
Calling ParMETIS... graph partitioning complete (8746 edge cuts).
Distributing ParMETIS coloring.
Rebalancing vertices.
Rebalancing volume element connectivity.
Rebalancing markers and surface elements.
310564 vertices including ghost points. 
298925 interior elements including halo cells. 
176 triangles.
298749 quadrilaterals.
Establishing MPI communication patterns.
Setting point connectivity.
Renumbering points (Reverse Cuthill McKee Ordering).
Recomputing point connectivity.
Setting element connectivity.
Checking the numerical grid orientation.
All volume elements are correctly orientend.
All surface elements are correctly orientend.
Identifying edges and vertices.
Setting the control volume structure.
Area of the computational grid: 0.00281152.
Searching for the closest normal neighbors to the surfaces.
Storing a mapping from global to local point index.
Compute the surface curvature.
Max K: 25766.3. Mean K: 66.0693. Standard deviation K: 1007.76.
Checking for periodicity.
Computing mesh quality statistics for the dual control volumes.
+--------------------------------------------------------------+
|           Mesh Quality Metric|        Minimum|        Maximum|
+--------------------------------------------------------------+
|    Orthogonality Angle (deg.)|        45.2115|             90|
|     CV Face Area Aspect Ratio|              1|        10.3208|
|           CV Sub-Volume Ratio|              1|        9.85984|
+--------------------------------------------------------------+
Finding max control volume width.
Communicating number of neighbors.
Wetted area = 0 m.
Area projection in the x-plane = 0 m, y-plane = 0 m.
Max. coordinate in the x-direction = -1e+10 m, y-direction = -1e+10 m.
Min. coordinate in the x-direction = 1e+10 m, y-direction = 1e+10 m.
Checking if Euler & Symmetry markers are straight/plane:
Boundary marker axis is a single straight.
Computing wall distances.

-------------------- Solver Preprocessing ( Zone 0 ) --------------------
Incompressible flow: rho_ref, vel_ref, temp_ref, p_ref
are set to 1.0 in order to perform a dimensional calculation.
Force coefficients computed using initial values.
The reference area for force coeffs. is 1 m^2.
The reference length for force coeffs. is 1 m.
The pressure is decomposed into thermodynamic and dynamic components.
The initial value of the dynamic pressure is 0.
Mach number: 0, computed using fluid speed of sound.
For external flows, the initial state is imposed at the far-field.
Angle of attack (deg): 0, computed using the initial velocity.
Side slip angle (deg): 0, computed using the initial velocity.
Reynolds number per meter: 65290.8, computed using initial values.
Reynolds number is a byproduct of inputs only (not used internally).
SI units only. The grid should be dimensional (meters).
Energy equation is active and coupled for variable density.

-- Models:
+------------------------------------------------------------------------------+
|          Viscosity Model|        Conductivity Model|              Fluid Model|
+------------------------------------------------------------------------------+
|       CONSTANT_VISCOSITY|          CONSTANT_PRANDTL|+------------------------------------------------------------------------------+
-- Fluid properties:
+------------------------------------------------------------------------------+
|                  Name|    Dim. value|    Ref. value|      Unit|Non-dim. value|
+------------------------------------------------------------------------------+
|             Viscosity|     1.118e-05|             1|   N.s/m^2|     1.118e-05|
+------------------------------------------------------------------------------+
|        Prandtl (Lam.)|             -|             -|         -|          0.72|
|       Prandtl (Turb.)|             -|             -|         -|           0.9|
+------------------------------------------------------------------------------+
-- Initial and free-stream conditions:
+------------------------------------------------------------------------------+
|                  Name|    Dim. value|    Ref. value|      Unit|Non-dim. value|
+------------------------------------------------------------------------------+
|      Dynamic Pressure|             0|             1|        Pa|             0|
|        Total Pressure|      0.585985|             1|        Pa|      0.585985|
|               Density|       1.17197|             1|    kg/m^3|       1.17197|
|           Temperature|           300|             1|         K|           300|
|            Velocity-X|             1|             1|       m/s|             1|
|            Velocity-Y|             0|             1|       m/s|             0|
|    Velocity Magnitude|             1|             1|       m/s|             1|
+------------------------------------------------------------------------------+
|             Viscosity|     1.795e-05|             1|   N.s/m^2|     1.795e-05|
|          Conductivity|             -|             1|   W/m^2.K|             -|
|     Turb. Kin. Energy|       0.00375|             1|   m^2/s^2|       0.00375|
|     Spec. Dissipation|       24.4841|             1|       1/s|       24.4841|
+------------------------------------------------------------------------------+
|           Mach Number|             -|             -|         -|             0|
|       Reynolds Number|             -|             -|         -|       65290.8|
+------------------------------------------------------------------------------+
Initialize Jacobian structure (Navier-Stokes). MG level: 0.
Initialize Jacobian structure (passive scalar model).
Initialize Jacobian structure (SST model).

------------------- Numerics Preprocessing ( Zone 0 ) -------------------

----------------- Integration Preprocessing ( Zone 0 ) ------------------

------------------- Iteration Preprocessing ( Zone 0 ) ------------------
Euler/Navier-Stokes/RANS fluid iteration.

------------------------------ Begin Solver -----------------------------

Simulation Run using the Single-zone Driver
Initializing passive scalar (initial condition).
initialization = 1 1
+----------------------------------------------------------------+
|  Inner_Iter|      rms[P]|      rms[U]|      rms[V]|      rms[c]|
+----------------------------------------------------------------+
|           0|   -5.116953|   -4.847332|   -4.364756|   -5.721765|
|           1|   -4.995791|   -4.851353|   -4.078100|   -5.300963|
|           2|   -5.396244|   -4.582742|   -4.043922|   -5.365069|
|           3|   -5.502283|   -4.778501|   -4.089965|   -5.473199|
|           4|   -5.684732|   -4.864661|   -4.144563|   -5.522475|
|           5|   -5.627215|   -4.909922|   -4.338485|   -5.553661|
|           6|   -5.717359|   -4.867892|   -4.541429|   -5.583919|
|           7|   -5.765730|   -4.810028|   -4.679616|   -5.633238|
|           8|   -5.797952|   -4.770435|   -4.676532|   -5.691417|
|           9|   -5.798676|   -4.748871|   -4.568693|   -5.735128|
|          10|   -5.772517|   -4.735518|   -4.410765|   -5.753953|
|          11|   -5.749738|   -4.723741|   -4.315430|   -5.751654|
|          12|   -5.755113|   -4.711626|   -4.285651|   -5.737579|
|          13|   -5.784432|   -4.697992|   -4.293640|   -5.720565|
|          14|   -5.821871|   -4.680612|   -4.321300|   -5.706417|
|          15|   -5.856370|   -4.657965|   -4.354819|   -5.697141|
|          16|   -5.884360|   -4.631271|   -4.381150|   -5.692135|
|          17|   -5.905207|   -4.603333|   -4.391402|   -5.689657|
|          18|   -5.919291|   -4.576564|   -4.385167|   -5.687916|
|          19|   -5.928508|   -4.552116|   -4.368840|   -5.685633|
|          20|   -5.935749|   -4.530095|   -4.350227|   -5.682143|
|          21|   -5.943530|   -4.510109|   -4.334799|   -5.677380|
|          22|   -5.953023|   -4.491744|   -4.324761|   -5.671634|
|          23|   -5.964107|   -4.474686|   -4.319798|   -5.665329|
|          24|   -5.975987|   -4.458716|   -4.318352|   -5.658849|
|          25|   -5.987835|   -4.443635|   -4.317289|   -5.652450|
|          26|   -5.999057|   -4.429236|   -4.316424|   -5.646245|
|          27|   -6.009374|   -4.415415|   -4.315068|   -5.640243|
|          28|   -6.018767|   -4.402090|   -4.313094|   -5.634392|
|          29|   -6.027361|   -4.389212|   -4.310774|   -5.628637|
|          30|   -6.035313|   -4.376717|   -4.308508|   -5.622949|
|          31|   -6.042770|   -4.364522|   -4.306640|   -5.617315|
|          32|   -6.049796|   -4.352537|   -4.305298|   -5.611718|
|          33|   -6.056371|   -4.340714|   -4.304355|   -5.606141|
|          34|   -6.062472|   -4.329058|   -4.303493|   -5.600588|
|          35|   -6.068079|   -4.317606|   -4.302463|   -5.595099|
|          36|   -6.073159|   -4.306389|   -4.300199|   -5.589746|
|          37|   -6.077791|   -4.295438|   -4.296281|   -5.584600|
|          38|   -6.082055|   -4.284757|   -4.290583|   -5.579710|
|          39|   -6.086002|   -4.274373|   -4.284931|   -5.575071|
|          40|   -6.089495|   -4.264274|   -4.279963|   -5.570631|
|          41|   -6.092476|   -4.254409|   -4.276115|   -5.566328|
|          42|   -6.095025|   -4.244635|   -4.273177|   -5.562171|
|          43|   -6.097281|   -4.234779|   -4.271018|   -5.558233|
|          44|   -6.099311|   -4.224740|   -4.269344|   -5.554575|
|          45|   -6.101057|   -4.214680|   -4.268813|   -5.551199|
|          46|   -6.102405|   -4.205037|   -4.269651|   -5.548056|
|          47|   -6.103325|   -4.196267|   -4.271104|   -5.545055|
|          48|   -6.103988|   -4.188711|   -4.272056|   -5.542066|
|          49|   -6.104597|   -4.182509|   -4.273521|   -5.539024|
|          50|   -6.104685|   -4.177693|   -4.275428|   -5.535972|
|          51|   -6.104097|   -4.174047|   -4.277774|   -5.532989|
|          52|   -6.103091|   -4.171333|   -4.280693|   -5.530178|
|          53|   -6.101441|   -4.169277|   -4.284255|   -5.527532|
|          54|   -6.099921|   -4.167921|   -4.288306|   -5.524978|
|          55|   -6.098574|   -4.167334|   -4.292465|   -5.522316|
|          56|   -6.096908|   -4.167383|   -4.296414|   -5.519293|
|          57|   -6.095134|   -4.167965|   -4.299668|   -5.515685|
|          58|   -6.092886|   -4.168918|   -4.301697|   -5.511340|
|          59|   -6.089300|   -4.169818|   -4.302067|   -5.506188|
|          60|   -6.083678|   -4.169960|   -4.300678|   -5.500201|
|          61|   -6.076129|   -4.168695|   -4.297619|   -5.493363|
|          62|   -6.066862|   -4.165659|   -4.292784|   -5.485651|
|          63|   -6.055391|   -4.160607|   -4.285861|   -5.477081|
|          64|   -6.042032|   -4.153882|   -4.276269|   -5.467604|
|          65|   -6.026349|   -4.145981|   -4.263046|   -5.457192|
|          66|   -6.008014|   -4.137505|   -4.244997|   -5.445763|
|          67|   -5.986601|   -4.128645|   -4.221295|   -5.433266|
|          68|   -5.962089|   -4.119504|   -4.192100|   -5.419756|
|          69|   -5.934410|   -4.110168|   -4.158520|   -5.405456|
|          70|   -5.906080|   -4.101348|   -4.122483|   -5.390691|
|          71|   -5.875532|   -4.092281|   -4.086243|   -5.376473|
|          72|   -5.844323|   -4.082804|   -4.052982|   -5.364539|
|          73|   -5.815383|   -4.072138|   -4.025715|   -5.356761|
|          74|   -5.792243|   -4.058983|   -4.007091|   -5.354261|
|          75|   -5.776768|   -4.043400|   -3.999046|   -5.356622|
|          76|   -5.768723|   -4.027055|   -4.002806|   -5.362272|
|          77|   -5.766528|   -4.012889|   -4.014356|   -5.369030|
|          78|   -5.768948|   -4.003461|   -4.026751|   -5.375292|
|          79|   -5.773252|   -3.998075|   -4.037820|   -5.381382|
|          80|   -5.780838|   -3.996634|   -4.047471|   -5.386828|
|          81|   -5.787151|   -3.995970|   -4.056779|   -5.391494|
|          82|   -5.791184|   -3.993589|   -4.064697|   -5.394918|
|          83|   -5.790945|   -3.989003|   -4.071841|   -5.397362|
|          84|   -5.786311|   -3.981267|   -4.078062|   -5.399258|
|          85|   -5.777306|   -3.971677|   -4.081181|   -5.399352|
|          86|   -5.767188|   -3.961719|   -4.078001|   -5.396805|
|          87|   -5.757312|   -3.952079|   -4.067750|   -5.390894|
|          88|   -5.747594|   -3.943748|   -4.048102|   -5.381061|
|          89|   -5.734577|   -3.936462|   -4.019741|   -5.368301|
|          90|   -5.713560|   -3.929000|   -3.988982|   -5.355742|
|          91|   -5.689499|   -3.920037|   -3.962810|   -5.346228|
|          92|   -5.668885|   -3.910764|   -3.945599|   -5.341259|
|          93|   -5.658416|   -3.904501|   -3.936597|   -5.340884|
|          94|   -5.657351|   -3.902657|   -3.935310|   -5.343120|
|          95|   -5.662529|   -3.903959|   -3.939362|   -5.347449|
|          96|   -5.671796|   -3.907010|   -3.945921|   -5.353144|
|          97|   -5.682556|   -3.909561|   -3.953228|   -5.359594|
|          98|   -5.693848|   -3.910912|   -3.961357|   -5.366616|
|          99|   -5.707114|   -3.912088|   -3.970112|   -5.373826|
|         100|   -5.721125|   -3.913768|   -3.980151|   -5.380771|
|         101|   -5.736490|   -3.916845|   -3.991779|   -5.387092|
|         102|   -5.751593|   -3.921100|   -4.005045|   -5.393253|
|         103|   -5.767121|   -3.926540|   -4.018929|   -5.399124|
|         104|   -5.784265|   -3.933302|   -4.032984|   -5.403726|
|         105|   -5.802063|   -3.940744|   -4.046718|   -5.405853|
|         106|   -5.818448|   -3.948801|   -4.057965|   -5.405331|
|         107|   -5.831747|   -3.957936|   -4.065361|   -5.401696|
|         108|   -5.833255|   -3.966850|   -4.069175|   -5.396455|
|         109|   -5.827426|   -3.973633|   -4.069248|   -5.390282|
|         110|   -5.815622|   -3.977536|   -4.067632|   -5.383813|
|         111|   -5.802059|   -3.979939|   -4.064742|   -5.378343|
|         112|   -5.792817|   -3.980888|   -4.060603|   -5.373169|
|         113|   -5.784449|   -3.980822|   -4.057108|   -5.368871|
|         114|   -5.778608|   -3.981135|   -4.055056|   -5.365803|
|         115|   -5.773879|   -3.981984|   -4.054721|   -5.364152|
|         116|   -5.771938|   -3.982903|   -4.056444|   -5.363722|
|         117|   -5.771880|   -3.984871|   -4.061036|   -5.364910|
|         118|   -5.774822|   -3.987611|   -4.068081|   -5.367657|
|         119|   -5.779003|   -3.991617|   -4.076784|   -5.372015|
|         120|   -5.784227|   -3.996835|   -4.086140|   -5.378021|
|         121|   -5.791632|   -4.003368|   -4.094642|   -5.385198|
|         122|   -5.798913|   -4.011214|   -4.101016|   -5.393154|
|         123|   -5.805939|   -4.019789|   -4.104359|   -5.401291|
|         124|   -5.812217|   -4.028879|   -4.104877|   -5.409351|
|         125|   -5.815821|   -4.038050|   -4.102876|   -5.417187|
|         126|   -5.815875|   -4.046362|   -4.098680|   -5.425064|
|         127|   -5.815426|   -4.053629|   -4.093340|   -5.433305|
|         128|   -5.813885|   -4.059719|   -4.088473|   -5.441889|
|         129|   -5.814155|   -4.065341|   -4.084271|   -5.450952|
|         130|   -5.820352|   -4.071447|   -4.080275|   -5.460301|
|         131|   -5.833893|   -4.078016|   -4.077449|   -5.468260|
|         132|   -5.847855|   -4.084615|   -4.076680|   -5.474924|
|         133|   -5.859973|   -4.090358|   -4.077398|   -5.480299|
|         134|   -5.870715|   -4.095373|   -4.079096|   -5.484468|
|         135|   -5.879382|   -4.099500|   -4.081368|   -5.487443|
|         136|   -5.885234|   -4.102536|   -4.083487|   -5.489254|
|         137|   -5.888173|   -4.104416|   -4.084895|   -5.490094|
|         138|   -5.888101|   -4.105271|   -4.085399|   -5.490322|
|         139|   -5.885640|   -4.105533|   -4.084962|   -5.490252|
|         140|   -5.881614|   -4.105158|   -4.083813|   -5.490501|
|         141|   -5.877164|   -4.104146|   -4.082810|   -5.491322|
|         142|   -5.873684|   -4.103015|   -4.082533|   -5.493027|
|         143|   -5.874704|   -4.102969|   -4.082470|   -5.495210|
|         144|   -5.877763|   -4.104189|   -4.082958|   -5.497595|
|         145|   -5.884061|   -4.107221|   -4.083831|   -5.500023|
|         146|   -5.891344|   -4.111025|   -4.085060|   -5.502269|
|         147|   -5.897634|   -4.114629|   -4.086348|   -5.504328|
|         148|   -5.903833|   -4.118157|   -4.087480|   -5.506275|
|         149|   -5.909890|   -4.121483|   -4.088591|   -5.507911|
|         150|   -5.915241|   -4.124612|   -4.089552|   -5.509042|
|         151|   -5.920535|   -4.127577|   -4.090093|   -5.509558|
|         152|   -5.923284|   -4.129962|   -4.089984|   -5.509534|
|         153|   -5.923668|   -4.131489|   -4.089401|   -5.509416|
|         154|   -5.923016|   -4.132514|   -4.088712|   -5.509572|
|         155|   -5.922509|   -4.133262|   -4.088495|   -5.510103|
|         156|   -5.923064|   -4.133931|   -4.088903|   -5.510922|
|         157|   -5.926511|   -4.135533|   -4.089807|   -5.511655|
|         158|   -5.931894|   -4.137879|   -4.091378|   -5.512066|
|         159|   -5.937769|   -4.141011|   -4.093456|   -5.512073|
|         160|   -5.943374|   -4.144536|   -4.095632|   -5.511797|
|         161|   -5.947968|   -4.147171|   -4.097479|   -5.511117|
|         162|   -5.950534|   -4.148856|   -4.099109|   -5.509876|
|         163|   -5.952041|   -4.149819|   -4.100211|   -5.508172|
|         164|   -5.953477|   -4.150230|   -4.100432|   -5.505653|
|         165|   -5.952464|   -4.149808|   -4.099793|   -5.502528|
|         166|   -5.949820|   -4.148342|   -4.098228|   -5.498977|
|         167|   -5.944480|   -4.145699|   -4.095861|   -5.495314|
|         168|   -5.938725|   -4.142030|   -4.092522|   -5.491939|
|         169|   -5.933638|   -4.137714|   -4.088749|   -5.488887|
|         170|   -5.930077|   -4.133088|   -4.085171|   -5.486100|
|         171|   -5.929344|   -4.128894|   -4.082022|   -5.483445|
|         172|   -5.931764|   -4.125891|   -4.079362|   -5.480563|
|         173|   -5.934919|   -4.123330|   -4.077309|   -5.477449|
|         174|   -5.938020|   -4.121114|   -4.075538|   -5.474053|
|         175|   -5.939547|   -4.118068|   -4.073862|   -5.470434|
|         176|   -5.940372|   -4.113852|   -4.072055|   -5.466735|
|         177|   -5.940824|   -4.109242|   -4.069991|   -5.462860|
|         178|   -5.941338|   -4.104147|   -4.067577|   -5.458860|
|         179|   -5.942082|   -4.098740|   -4.064827|   -5.454618|
|         180|   -5.941759|   -4.093103|   -4.061540|   -5.450141|
|         181|   -5.940904|   -4.087238|   -4.057461|   -5.445570|
|         182|   -5.939535|   -4.081230|   -4.052832|   -5.440955|
|         183|   -5.937351|   -4.075149|   -4.047799|   -5.436430|
|         184|   -5.935316|   -4.068969|   -4.042535|   -5.432250|
|         185|   -5.934247|   -4.063083|   -4.037282|   -5.428385|
|         186|   -5.934702|   -4.057947|   -4.032219|   -5.424807|
|         187|   -5.937848|   -4.053661|   -4.027367|   -5.421377|
|         188|   -5.942365|   -4.050370|   -4.023086|   -5.417933|
|         189|   -5.947052|   -4.048049|   -4.019296|   -5.414422|
|         190|   -5.951595|   -4.045980|   -4.015920|   -5.410946|
|         191|   -5.955733|   -4.044160|   -4.013016|   -5.407558|
|         192|   -5.959110|   -4.042585|   -4.010581|   -5.404295|
|         193|   -5.961983|   -4.040955|   -4.008481|   -5.401198|
|         194|   -5.964336|   -4.039261|   -4.006646|   -5.398269|
|         195|   -5.966274|   -4.037595|   -4.005167|   -5.395479|
|         196|   -5.967130|   -4.035846|   -4.004046|   -5.392848|
|         197|   -5.967766|   -4.034084|   -4.003127|   -5.390383|
|         198|   -5.967580|   -4.032350|   -4.002350|   -5.388061|
|         199|   -5.966664|   -4.030495|   -4.001538|   -5.385966|
|         200|   -5.965696|   -4.028545|   -4.000634|   -5.384187|
|         201|   -5.964712|   -4.026693|   -3.999695|   -5.382769|
|         202|   -5.963537|   -4.024841|   -3.998827|   -5.381740|
|         203|   -5.963288|   -4.022873|   -3.998218|   -5.381091|
|         204|   -5.964235|   -4.021165|   -3.997961|   -5.380775|
|         205|   -5.967031|   -4.020353|   -3.997894|   -5.380693|
|         206|   -5.970262|   -4.019979|   -3.997975|   -5.380844|
|         207|   -5.974025|   -4.019935|   -3.998154|   -5.381222|
|         208|   -5.978268|   -4.020369|   -3.998415|   -5.381822|
|         209|   -5.982783|   -4.021067|   -3.998671|   -5.382616|
|         210|   -5.986790|   -4.021631|   -3.998888|   -5.383604|
|         211|   -5.990345|   -4.021935|   -3.999070|   -5.384785|
|         212|   -5.994016|   -4.022023|   -3.999277|   -5.386153|
|         213|   -5.997414|   -4.021894|   -3.999546|   -5.387674|
|         214|   -6.000879|   -4.021532|   -3.999819|   -5.389314|
|         215|   -6.004051|   -4.021021|   -4.000034|   -5.391061|
|         216|   -6.007983|   -4.020439|   -4.000099|   -5.392871|
|         217|   -6.011565|   -4.019688|   -4.000191|   -5.394800|
|         218|   -6.015191|   -4.018658|   -4.000282|   -5.396897|
|         219|   -6.019591|   -4.017459|   -4.000401|   -5.399140|
|         220|   -6.023764|   -4.015994|   -4.000752|   -5.401565|
|         221|   -6.028487|   -4.014250|   -4.001355|   -5.404185|
|         222|   -6.034166|   -4.012261|   -4.002494|   -5.406983|
|         223|   -6.040345|   -4.010359|   -4.004144|   -5.409903|
|         224|   -6.047281|   -4.008754|   -4.006172|   -5.412935|
|         225|   -6.054621|   -4.007194|   -4.008620|   -5.416074|
|         226|   -6.062475|   -4.005548|   -4.011523|   -5.419325|
|         227|   -6.070895|   -4.004092|   -4.014921|   -5.422682|
|         228|   -6.079278|   -4.002892|   -4.018776|   -5.426127|
|         229|   -6.087395|   -4.001628|   -4.022794|   -5.429647|
|         230|   -6.095310|   -4.000130|   -4.026975|   -5.433224|
|         231|   -6.102751|   -3.998525|   -4.031351|   -5.436840|
|         232|   -6.110727|   -3.996914|   -4.035766|   -5.440508|
|         233|   -6.119558|   -3.995477|   -4.040318|   -5.444221|
|         234|   -6.129290|   -3.994335|   -4.044959|   -5.447937|
|         235|   -6.138696|   -3.993279|   -4.049756|   -5.451647|
|         236|   -6.146990|   -3.992201|   -4.054593|   -5.455334|
|         237|   -6.155134|   -3.991052|   -4.059395|   -5.459085|
|         238|   -6.164412|   -3.990027|   -4.064212|   -5.462923|
|         239|   -6.174293|   -3.989248|   -4.069125|   -5.466800|
|         240|   -6.183189|   -3.988541|   -4.074169|   -5.470746|
|         241|   -6.191872|   -3.987701|   -4.079059|   -5.474784|
|         242|   -6.199849|   -3.986986|   -4.083860|   -5.478836|
|         243|   -6.208652|   -3.986130|   -4.088454|   -5.482999|
|         244|   -6.215444|   -3.985539|   -4.092881|   -5.487097|
|         245|   -6.222841|   -3.984858|   -4.097047|   -5.491254|
|         246|   -6.227948|   -3.984237|   -4.100995|   -5.495344|
|         247|   -6.232472|   -3.983558|   -4.104628|   -5.499454|
|         248|   -6.236453|   -3.982821|   -4.107902|   -5.503525|
|         249|   -6.239704|   -3.982181|   -4.110679|   -5.507542|
|         250|   -6.243162|   -3.981304|   -4.113084|   -5.511565|
|         251|   -6.245595|   -3.980463|   -4.115145|   -5.515503|
|         252|   -6.248360|   -3.979417|   -4.116975|   -5.519498|
|         253|   -6.250695|   -3.978536|   -4.118545|   -5.523388|
|         254|   -6.254244|   -3.977564|   -4.119931|   -5.527347|
|         255|   -6.257492|   -3.976672|   -4.120983|   -5.531172|
|         256|   -6.261846|   -3.975616|   -4.121878|   -5.535042|
|         257|   -6.266049|   -3.974564|   -4.122721|   -5.538763|
|         258|   -6.271201|   -3.973396|   -4.123762|   -5.542489|
|         259|   -6.275099|   -3.972186|   -4.124958|   -5.546054|
|         260|   -6.278968|   -3.970757|   -4.126276|   -5.549593|
|         261|   -6.281370|   -3.969213|   -4.127659|   -5.552942|
|         262|   -6.283206|   -3.967390|   -4.129102|   -5.556229|
|         263|   -6.284241|   -3.965425|   -4.130612|   -5.559427|
|         264|   -6.283442|   -3.963438|   -4.132006|   -5.562381|
|         265|   -6.281316|   -3.961366|   -4.133250|   -5.565320|
|         266|   -6.279194|   -3.959382|   -4.134373|   -5.568106|
|         267|   -6.274660|   -3.957469|   -4.135274|   -5.570813|
|         268|   -6.269755|   -3.955706|   -4.135645|   -5.573478|
|         269|   -6.266071|   -3.954071|   -4.135674|   -5.576208|
|         270|   -6.261646|   -3.952861|   -4.135137|   -5.578818|
|         271|   -6.257336|   -3.951829|   -4.134180|   -5.581513|
|         272|   -6.254308|   -3.950955|   -4.133012|   -5.584177|
|         273|   -6.252441|   -3.950327|   -4.131565|   -5.586861|
|         274|   -6.252775|   -3.949936|   -4.130153|   -5.589572|
|         275|   -6.253419|   -3.949972|   -4.128721|   -5.592224|
|         276|   -6.256256|   -3.950255|   -4.127600|   -5.594875|
|         277|   -6.259694|   -3.951007|   -4.126859|   -5.597498|
|         278|   -6.264814|   -3.952053|   -4.126642|   -5.600017|
|         279|   -6.270326|   -3.953364|   -4.127005|   -5.602552|
|         280|   -6.275801|   -3.954747|   -4.127898|   -5.604980|
|         281|   -6.281765|   -3.956282|   -4.129388|   -5.607442|
|         282|   -6.286971|   -3.958079|   -4.131382|   -5.609927|
|         283|   -6.290416|   -3.959937|   -4.133828|   -5.612417|
|         284|   -6.292762|   -3.961737|   -4.136773|   -5.614962|
|         285|   -6.294185|   -3.963419|   -4.140141|   -5.617572|
|         286|   -6.294301|   -3.964934|   -4.143771|   -5.620216|
|         287|   -6.293677|   -3.966336|   -4.147652|   -5.622896|
|         288|   -6.290664|   -3.967439|   -4.151787|   -5.625481|
|         289|   -6.287312|   -3.968207|   -4.155944|   -5.628182|
|         290|   -6.282548|   -3.968553|   -4.159809|   -5.630618|
|         291|   -6.276444|   -3.968293|   -4.162776|   -5.633115|
|         292|   -6.268409|   -3.967553|   -4.164211|   -5.635398|
|         293|   -6.260222|   -3.966259|   -4.163991|   -5.637621|
|         294|   -6.251527|   -3.964541|   -4.161830|   -5.639796|
|         295|   -6.241960|   -3.962370|   -4.157492|   -5.641778|
|         296|   -6.233607|   -3.959982|   -4.151185|   -5.643672|
|         297|   -6.227135|   -3.957642|   -4.143100|   -5.645385|
|         298|   -6.221819|   -3.955471|   -4.133560|   -5.646781|
|         299|   -6.217256|   -3.953623|   -4.122971|   -5.647779|
|         300|   -6.213047|   -3.952176|   -4.111685|   -5.648382|
|         301|   -6.208567|   -3.951238|   -4.099956|   -5.648639|
|         302|   -6.204449|   -3.950895|   -4.088005|   -5.648587|
|         303|   -6.200180|   -3.951163|   -4.076054|   -5.648241|
|         304|   -6.195317|   -3.951989|   -4.064560|   -5.647684|
|         305|   -6.190140|   -3.953532|   -4.054125|   -5.646957|
|         306|   -6.184405|   -3.955912|   -4.045097|   -5.646195|
|         307|   -6.178452|   -3.959113|   -4.037671|   -5.645488|
|         308|   -6.172502|   -3.963034|   -4.031894|   -5.644900|
|         309|   -6.165841|   -3.967581|   -4.027739|   -5.644435|
|         310|   -6.158972|   -3.972636|   -4.025015|   -5.644172|
|         311|   -6.151914|   -3.978138|   -4.023618|   -5.644040|
|         312|   -6.144288|   -3.984034|   -4.023335|   -5.644100|
|         313|   -6.136217|   -3.990322|   -4.024017|   -5.644371|
|         314|   -6.127682|   -3.997062|   -4.025599|   -5.644964|
|         315|   -6.118754|   -4.004370|   -4.028189|   -5.646056|
|         316|   -6.109703|   -4.012223|   -4.031978|   -5.647802|
|         317|   -6.100760|   -4.020602|   -4.037032|   -5.650442|
|         318|   -6.092858|   -4.029479|   -4.043291|   -5.654068|
|         319|   -6.086479|   -4.039030|   -4.050730|   -5.658675|
|         320|   -6.081319|   -4.049247|   -4.059347|   -5.664190|
|         321|   -6.077015|   -4.059922|   -4.069079|   -5.670557|
|         322|   -6.073659|   -4.070872|   -4.079488|   -5.677750|
|         323|   -6.071763|   -4.081782|   -4.089761|   -5.685689|
|         324|   -6.071490|   -4.092386|   -4.100036|   -5.694059|
|         325|   -6.071088|   -4.102663|   -4.110415|   -5.702622|
|         326|   -6.070010|   -4.112535|   -4.120734|   -5.711266|
|         327|   -6.068254|   -4.121851|   -4.130776|   -5.719829|
|         328|   -6.065779|   -4.130556|   -4.140343|   -5.728193|
|         329|   -6.062758|   -4.138608|   -4.149230|   -5.736270|
|         330|   -6.059057|   -4.145879|   -4.157283|   -5.743940|
|         331|   -6.054520|   -4.152222|   -4.164419|   -5.751228|
|         332|   -6.049306|   -4.157650|   -4.170554|   -5.758180|
|         333|   -6.043484|   -4.162341|   -4.175647|   -5.764791|
|         334|   -6.037283|   -4.166487|   -4.179738|   -5.771181|
|         335|   -6.031283|   -4.170263|   -4.182869|   -5.777491|
|         336|   -6.025631|   -4.173880|   -4.185073|   -5.783705|
|         337|   -6.020275|   -4.177454|   -4.186394|   -5.789705|
|         338|   -6.015141|   -4.181073|   -4.186947|   -5.795643|
|         339|   -6.010676|   -4.184853|   -4.186899|   -5.801680|
|         340|   -6.006979|   -4.188978|   -4.186429|   -5.807674|
|         341|   -6.004167|   -4.193497|   -4.183800|   -5.813541|
|         342|   -6.002230|   -4.198192|   -4.180035|   -5.819039|
|         343|   -6.000905|   -4.202887|   -4.176524|   -5.823977|
|         344|   -5.999957|   -4.207378|   -4.173616|   -5.827745|
|         345|   -5.999086|   -4.211405|   -4.171350|   -5.830073|
|         346|   -5.997996|   -4.214883|   -4.169607|   -5.831042|
|         347|   -5.996555|   -4.217860|   -4.168216|   -5.830855|
|         348|   -5.994754|   -4.220437|   -4.167049|   -5.830427|
|         349|   -5.992808|   -4.222884|   -4.165985|   -5.829316|
|         350|   -5.990742|   -4.225498|   -4.164863|   -5.827355|
|         351|   -5.988482|   -4.228428|   -4.163585|   -5.824426|
|         352|   -5.986029|   -4.231682|   -4.162135|   -5.820521|
|         353|   -5.983659|   -4.235176|   -4.160515|   -5.815826|
|         354|   -5.981431|   -4.238863|   -4.158715|   -5.810464|
|         355|   -5.979323|   -4.242719|   -4.156796|   -5.804498|
|         356|   -5.977353|   -4.246724|   -4.154889|   -5.798053|
|         357|   -5.975532|   -4.250824|   -4.153157|   -5.791286|
|         358|   -5.973819|   -4.254809|   -4.151775|   -5.784371|
|         359|   -5.972151|   -4.258499|   -4.150846|   -5.777449|
|         360|   -5.970467|   -4.261737|   -4.150357|   -5.770657|
|         361|   -5.968698|   -4.264355|   -4.150223|   -5.764046|
|         362|   -5.966772|   -4.266304|   -4.150302|   -5.757662|
|         363|   -5.964683|   -4.267656|   -4.150470|   -5.751543|
|         364|   -5.962362|   -4.268434|   -4.150637|   -5.745731|
|         365|   -5.959801|   -4.268645|   -4.150743|   -5.740323|
|         366|   -5.957053|   -4.268408|   -4.150725|   -5.735427|
|         367|   -5.954234|   -4.267877|   -4.150583|   -5.731208|
|         368|   -5.951584|   -4.267227|   -4.150326|   -5.727932|
|         369|   -5.949263|   -4.266554|   -4.150060|   -5.725682|
|         370|   -5.947340|   -4.265949|   -4.149789|   -5.724443|
|         371|   -5.945902|   -4.265413|   -4.149434|   -5.724282|
|         372|   -5.945090|   -4.265105|   -4.149100|   -5.725070|
|         373|   -5.944850|   -4.265090|   -4.148929|   -5.726664|
|         374|   -5.945095|   -4.265382|   -4.148842|   -5.728943|
|         375|   -5.945782|   -4.265993|   -4.148884|   -5.731827|
|         376|   -5.946918|   -4.266890|   -4.149132|   -5.735214|
|         377|   -5.948494|   -4.268060|   -4.149696|   -5.738990|
|         378|   -5.950410|   -4.269463|   -4.150655|   -5.743015|
|         379|   -5.952554|   -4.270924|   -4.151943|   -5.747130|
|         380|   -5.954926|   -4.272275|   -4.153659|   -5.751312|
|         381|   -5.957447|   -4.273406|   -4.155667|   -5.755488|
|         382|   -5.960144|   -4.274224|   -4.158023|   -5.759630|
|         383|   -5.962832|   -4.274695|   -4.160743|   -5.763598|
|         384|   -5.965622|   -4.274714|   -4.163800|   -5.767507|
|         385|   -5.968562|   -4.274329|   -4.167224|   -5.771263|
|         386|   -5.971504|   -4.273414|   -4.170958|   -5.774888|
|         387|   -5.974609|   -4.271964|   -4.174920|   -5.778472|
|         388|   -5.977722|   -4.269990|   -4.179055|   -5.781921|
|         389|   -5.980950|   -4.267570|   -4.183318|   -5.785167|
|         390|   -5.984291|   -4.264728|   -4.187575|   -5.788241|
|         391|   -5.987740|   -4.261531|   -4.191780|   -5.791038|
|         392|   -5.991269|   -4.258114|   -4.196043|   -5.793458|
|         393|   -5.994742|   -4.254632|   -4.200231|   -5.795384|
|         394|   -5.998286|   -4.251229|   -4.204407|   -5.796692|
|         395|   -6.001851|   -4.248079|   -4.208576|   -5.797339|
|         396|   -6.005366|   -4.245313|   -4.212760|   -5.797265|
|         397|   -6.008789|   -4.243023|   -4.216902|   -5.796391|
|         398|   -6.012120|   -4.241192|   -4.219526|   -5.794816|
|         399|   -6.015290|   -4.239683|   -4.217869|   -5.792757|
|         400|   -6.018059|   -4.238521|   -4.215371|   -5.790280|
|         401|   -6.021040|   -4.237525|   -4.213547|   -5.787608|
|         402|   -6.024156|   -4.236685|   -4.212587|   -5.784829|
|         403|   -6.027446|   -4.235797|   -4.212018|   -5.781888|
|         404|   -6.030437|   -4.234545|   -4.211884|   -5.778899|
|         405|   -6.033632|   -4.232819|   -4.212786|   -5.775807|
|         406|   -6.036502|   -4.230772|   -4.214659|   -5.772773|
|         407|   -6.039443|   -4.228588|   -4.216879|   -5.769585|
|         408|   -6.042358|   -4.226410|   -4.219159|   -5.766164|
|         409|   -6.045092|   -4.224266|   -4.221676|   -5.762507|
|         410|   -6.047472|   -4.221912|   -4.222393|   -5.758960|
|         411|   -6.049876|   -4.219688|   -4.223799|   -5.754902|
|         412|   -6.052439|   -4.217702|   -4.226928|   -5.750649|
|         413|   -6.055034|   -4.215941|   -4.231578|   -5.745850|
|         414|   -6.057471|   -4.214142|   -4.236813|   -5.741086|
|         415|   -6.059499|   -4.212035|   -4.241647|   -5.736270|
|         416|   -6.062083|   -4.209529|   -4.246237|   -5.731116|
|         417|   -6.064486|   -4.206693|   -4.250489|   -5.725277|
|         418|   -6.066169|   -4.203362|   -4.254276|   -5.719207|
|         419|   -6.067499|   -4.199634|   -4.257643|   -5.712745|
|         420|   -6.068057|   -4.195581|   -4.260710|   -5.706019|
|         421|   -6.068121|   -4.191124|   -4.263537|   -5.698871|
|         422|   -6.067455|   -4.186363|   -4.265985|   -5.691424|
|         423|   -6.065568|   -4.181247|   -4.267926|   -5.683693|
|         424|   -6.062606|   -4.175689|   -4.269255|   -5.675842|
|         425|   -6.058443|   -4.169728|   -4.269965|   -5.668199|
|         426|   -6.053627|   -4.163364|   -4.270025|   -5.660755|
|         427|   -6.048410|   -4.156609|   -4.269273|   -5.653757|
|         428|   -6.042747|   -4.149401|   -4.267702|   -5.647429|
|         429|   -6.037125|   -4.141749|   -4.265126|   -5.641655|
|         430|   -6.031476|   -4.133702|   -4.261582|   -5.636523|
|         431|   -6.026332|   -4.125357|   -4.257088|   -5.632002|
|         432|   -6.021459|   -4.116840|   -4.251649|   -5.627832|
|         433|   -6.017410|   -4.108177|   -4.244950|   -5.623970|
|         434|   -6.014913|   -4.099556|   -4.237023|   -5.619859|
|         435|   -6.012400|   -4.091005|   -4.228393|   -5.615417|
|         436|   -6.010177|   -4.082711|   -4.219066|   -5.610535|
|         437|   -6.007630|   -4.074868|   -4.209132|   -5.605236|
|         438|   -6.004314|   -4.067465|   -4.198623|   -5.599625|
|         439|   -6.000879|   -4.060534|   -4.187596|   -5.593695|
|         440|   -5.997216|   -4.054146|   -4.176329|   -5.587580|
|         441|   -5.993481|   -4.048520|   -4.165205|   -5.581786|
|         442|   -5.989939|   -4.043732|   -4.154657|   -5.576441|
|         443|   -5.986587|   -4.039435|   -4.145010|   -5.571848|
|         444|   -5.983910|   -4.035379|   -4.136032|   -5.568169|
|         445|   -5.982201|   -4.031443|   -4.127427|   -5.565712|
|         446|   -5.982512|   -4.027779|   -4.119115|   -5.564407|
|         447|   -5.984047|   -4.024619|   -4.111565|   -5.564139|
|         448|   -5.986576|   -4.022016|   -4.104840|   -5.564825|
|         449|   -5.989529|   -4.019535|   -4.098894|   -5.566299|
|         450|   -5.992422|   -4.016617|   -4.093662|   -5.568196|
|         451|   -5.994886|   -4.013357|   -4.089666|   -5.570232|
|         452|   -5.996312|   -4.010465|   -4.086767|   -5.572377|
|         453|   -5.996664|   -4.008716|   -4.084496|   -5.574894|
|         454|   -5.997116|   -4.007284|   -4.083186|   -5.578019|
|         455|   -5.998282|   -4.005860|   -4.083526|   -5.581832|
|         456|   -6.002365|   -4.004665|   -4.086821|   -5.586411|
|         457|   -6.011458|   -4.004205|   -4.093305|   -5.591858|
|         458|   -6.029432|   -4.004529|   -4.101989|   -5.597572|
|         459|   -6.052815|   -4.006021|   -4.113188|   -5.603111|
|         460|   -6.078390|   -4.009022|   -4.126169|   -5.608058|
|         461|   -6.104484|   -4.013116|   -4.139423|   -5.612161|
|         462|   -6.129562|   -4.016784|   -4.151291|   -5.615183|
|         463|   -6.149660|   -4.019365|   -4.161391|   -5.617208|
|         464|   -6.164311|   -4.020970|   -4.169936|   -5.618503|
|         465|   -6.174380|   -4.021901|   -4.177021|   -5.619143|
|         466|   -6.182213|   -4.022361|   -4.182967|   -5.618868|
|         467|   -6.188194|   -4.022655|   -4.188338|   -5.618427|
|         468|   -6.192880|   -4.023015|   -4.193599|   -5.617441|
|         469|   -6.196610|   -4.023501|   -4.199084|   -5.615914|
|         470|   -6.198838|   -4.024198|   -4.204991|   -5.614009|
|         471|   -6.203724|   -4.025009|   -4.211471|   -5.611637|
|         472|   -6.207861|   -4.025778|   -4.218200|   -5.609107|
|         473|   -6.210365|   -4.026427|   -4.224592|   -5.606649|
|         474|   -6.212190|   -4.026847|   -4.230286|   -5.604320|
|         475|   -6.212404|   -4.026973|   -4.235094|   -5.602147|
|         476|   -6.209846|   -4.026826|   -4.239129|   -5.599033|
|         477|   -6.205088|   -4.026467|   -4.242305|   -5.596548|
|         478|   -6.199992|   -4.025852|   -4.244368|   -5.593640|
|         479|   -6.187714|   -4.024867|   -4.244948|   -5.590908|
|         480|   -6.180660|   -4.023643|   -4.244190|   -5.588055|
|         481|   -6.170383|   -4.021969|   -4.242662|   -5.585151|
|         482|   -6.159568|   -4.020077|   -4.239884|   -5.582565|
|         483|   -6.149140|   -4.018200|   -4.236439|   -5.580746|
|         484|   -6.139515|   -4.016679|   -4.232577|   -5.579125|
|         485|   -6.131877|   -4.015660|   -4.227961|   -5.578058|
|         486|   -6.124226|   -4.014982|   -4.225357|   -5.578193|
|         487|   -6.117917|   -4.013940|   -4.225836|   -5.579009|
|         488|   -6.118450|   -4.013016|   -4.227681|   -5.580474|
|         489|   -6.124846|   -4.013622|   -4.231004|   -5.582239|
|         490|   -6.133524|   -4.016403|   -4.235157|   -5.584205|
|         491|   -6.142595|   -4.019595|   -4.239177|   -5.586394|
|         492|   -6.151597|   -4.022577|   -4.242269|   -5.588648|
|         493|   -6.157559|   -4.025936|   -4.244741|   -5.590822|
|         494|   -6.161095|   -4.029694|   -4.246289|   -5.592897|
|         495|   -6.161645|   -4.033402|   -4.246651|   -5.595079|
|         496|   -6.160398|   -4.036809|   -4.246226|   -5.597565|
|         497|   -6.159100|   -4.040023|   -4.245322|   -5.600384|
|         498|   -6.157961|   -4.043201|   -4.244253|   -5.603356|
|         499|   -6.156673|   -4.046284|   -4.243047|   -5.606229|
|         500|   -6.156229|   -4.049181|   -4.240359|   -5.608731|
|         501|   -6.157266|   -4.051870|   -4.237140|   -5.610641|
|         502|   -6.157302|   -4.053909|   -4.233417|   -5.612138|
|         503|   -6.155691|   -4.055231|   -4.229159|   -5.613494|
|         504|   -6.153336|   -4.056079|   -4.224502|   -5.614958|
|         505|   -6.151331|   -4.056879|   -4.219525|   -5.616671|
|         506|   -6.150331|   -4.058014|   -4.214794|   -5.618630|
|         507|   -6.149967|   -4.059733|   -4.210606|   -5.620788|
|         508|   -6.149457|   -4.062234|   -4.206888|   -5.623056|
|         509|   -6.148547|   -4.065641|   -4.203380|   -5.625310|
|         510|   -6.147117|   -4.069940|   -4.199836|   -5.627463|
|         511|   -6.145034|   -4.074960|   -4.196123|   -5.629481|
|         512|   -6.142322|   -4.080440|   -4.192148|   -5.631374|
|         513|   -6.139333|   -4.086126|   -4.187889|   -5.633157|
|         514|   -6.136257|   -4.091757|   -4.183388|   -5.634857|
|         515|   -6.133380|   -4.097126|   -4.178742|   -5.636494|
|         516|   -6.130905|   -4.102078|   -4.174113|   -5.638082|
|         517|   -6.128938|   -4.106509|   -4.169671|   -5.639630|
|         518|   -6.127491|   -4.110373|   -4.165525|   -5.641144|
|         519|   -6.126489|   -4.113670|   -4.161757|   -5.642632|
|         520|   -6.125726|   -4.116398|   -4.158418|   -5.644102|
|         521|   -6.124978|   -4.118552|   -4.155539|   -5.645564|
|         522|   -6.124009|   -4.120146|   -4.153122|   -5.647026|
|         523|   -6.122632|   -4.121206|   -4.151192|   -5.648495|
|         524|   -6.120747|   -4.121816|   -4.149814|   -5.649979|
|         525|   -6.118316|   -4.122108|   -4.149020|   -5.651485|
|         526|   -6.115429|   -4.122225|   -4.148790|   -5.653014|
|         527|   -6.112216|   -4.122248|   -4.149014|   -5.654565|
|         528|   -6.108911|   -4.122206|   -4.149520|   -5.656143|
|         529|   -6.105961|   -4.122004|   -4.150226|   -5.657753|
|         530|   -6.103935|   -4.121716|   -4.150898|   -5.659400|
|         531|   -6.103293|   -4.122012|   -4.151489|   -5.661084|
|         532|   -6.104434|   -4.124071|   -4.151860|   -5.662797|
|         533|   -6.107207|   -4.128831|   -4.151796|   -5.664526|
|         534|   -6.110649|   -4.135425|   -4.151678|   -5.666257|
|         535|   -6.113900|   -4.143042|   -4.152274|   -5.668010|
|         536|   -6.116537|   -4.151105|   -4.153693|   -5.669796|
|         537|   -6.118553|   -4.158656|   -4.155667|   -5.671602|
|         538|   -6.120138|   -4.164788|   -4.157948|   -5.673411|
|         539|   -6.121440|   -4.169355|   -4.160490|   -5.675208|
|         540|   -6.122542|   -4.172870|   -4.162800|   -5.676990|
|         541|   -6.123513|   -4.175910|   -4.164552|   -5.678747|
|         542|   -6.124350|   -4.178827|   -4.165692|   -5.680463|
|         543|   -6.125058|   -4.181749|   -4.166240|   -5.682125|
|         544|   -6.125646|   -4.184720|   -4.166298|   -5.683717|
|         545|   -6.126118|   -4.187772|   -4.165987|   -5.685228|
|         546|   -6.126487|   -4.190868|   -4.165425|   -5.686654|
|         547|   -6.126781|   -4.193976|   -4.164725|   -5.687995|
|         548|   -6.127024|   -4.197086|   -4.163954|   -5.689258|
|         549|   -6.127236|   -4.200185|   -4.163132|   -5.690454|
|         550|   -6.127440|   -4.203225|   -4.162265|   -5.691596|
|         551|   -6.127669|   -4.206133|   -4.161344|   -5.692704|
|         552|   -6.127947|   -4.208841|   -4.160349|   -5.693795|
|         553|   -6.128289|   -4.211293|   -4.159307|   -5.694888|
|         554|   -6.128703|   -4.213449|   -4.158229|   -5.696002|
|         555|   -6.129195|   -4.215273|   -4.157132|   -5.697150|
|         556|   -6.129774|   -4.216748|   -4.156067|   -5.698346|
|         557|   -6.130420|   -4.217884|   -4.155038|   -5.699596|
|         558|   -6.131131|   -4.218698|   -4.154053|   -5.700905|
|         559|   -6.131910|   -4.219195|   -4.153116|   -5.702270|
|         560|   -6.132775|   -4.219357|   -4.152212|   -5.703684|
|         561|   -6.133728|   -4.219169|   -4.151349|   -5.705142|
|         562|   -6.134783|   -4.218632|   -4.150576|   -5.706634|
|         563|   -6.135936|   -4.217768|   -4.149930|   -5.708154|
|         564|   -6.137175|   -4.216646|   -4.149416|   -5.709697|
|         565|   -6.138499|   -4.215335|   -4.149049|   -5.711262|
|         566|   -6.139923|   -4.213878|   -4.148822|   -5.712848|
|         567|   -6.141445|   -4.212253|   -4.148722|   -5.714460|
|         568|   -6.143070|   -4.210417|   -4.148729|   -5.716105|
|         569|   -6.144801|   -4.208339|   -4.148827|   -5.717791|
|         570|   -6.146631|   -4.206014|   -4.148997|   -5.719524|
|         571|   -6.148561|   -4.203456|   -4.149251|   -5.721315|
|         572|   -6.150608|   -4.200694|   -4.149611|   -5.723171|
|         573|   -6.152737|   -4.197756|   -4.150046|   -5.725100|
|         574|   -6.154956|   -4.194669|   -4.150581|   -5.727106|
|         575|   -6.157264|   -4.191454|   -4.151232|   -5.729195|
|         576|   -6.159676|   -4.188102|   -4.151992|   -5.731370|
|         577|   -6.162204|   -4.184602|   -4.152839|   -5.733634|
|         578|   -6.164854|   -4.180952|   -4.153762|   -5.735988|
|         579|   -6.167634|   -4.177180|   -4.154776|   -5.738433|
|         580|   -6.170555|   -4.173332|   -4.155933|   -5.740967|
|         581|   -6.173620|   -4.169444|   -4.157269|   -5.743592|
|         582|   -6.176804|   -4.165559|   -4.158734|   -5.746304|
|         583|   -6.180107|   -4.161695|   -4.160315|   -5.749101|
|         584|   -6.183543|   -4.157847|   -4.161998|   -5.751981|
|         585|   -6.187115|   -4.153999|   -4.163779|   -5.754941|
|         586|   -6.190829|   -4.150155|   -4.165616|   -5.757978|
|         587|   -6.194670|   -4.146317|   -4.167495|   -5.761089|
|         588|   -6.198626|   -4.142505|   -4.169414|   -5.764270|
|         589|   -6.202686|   -4.138751|   -4.171363|   -5.767518|
|         590|   -6.206859|   -4.135077|   -4.173375|   -5.770834|
|         591|   -6.211122|   -4.131491|   -4.175423|   -5.774211|
|         592|   -6.215436|   -4.128010|   -4.177499|   -5.777650|
|         593|   -6.219812|   -4.124637|   -4.179674|   -5.781145|
|         594|   -6.224256|   -4.121380|   -4.181978|   -5.784696|
|         595|   -6.228766|   -4.118214|   -4.184424|   -5.788300|
|         596|   -6.233376|   -4.115123|   -4.186594|   -5.791951|
|         597|   -6.238013|   -4.112099|   -4.188528|   -5.795643|
|         598|   -6.242733|   -4.109150|   -4.190555|   -5.799372|
|         599|   -6.247618|   -4.106309|   -4.192814|   -5.803137|
|         600|   -6.252697|   -4.103588|   -4.195367|   -5.806938|
|         601|   -6.257995|   -4.100963|   -4.198254|   -5.810771|
|         602|   -6.263495|   -4.098401|   -4.201414|   -5.814636|
|         603|   -6.269201|   -4.095870|   -4.204823|   -5.818530|
|         604|   -6.275150|   -4.093357|   -4.208480|   -5.822453|
|         605|   -6.281360|   -4.090869|   -4.212384|   -5.826404|
|         606|   -6.287872|   -4.088419|   -4.216566|   -5.830386|
|         607|   -6.294738|   -4.086032|   -4.221073|   -5.834396|
|         608|   -6.301978|   -4.083708|   -4.225871|   -5.838435|
|         609|   -6.309617|   -4.081440|   -4.230926|   -5.842508|
|         610|   -6.317721|   -4.079237|   -4.236265|   -5.846613|
|         611|   -6.326293|   -4.077109|   -4.241899|   -5.850752|
|         612|   -6.335319|   -4.075079|   -4.247842|   -5.854923|
|         613|   -6.344825|   -4.073155|   -4.254160|   -5.859127|
|         614|   -6.354824|   -4.071333|   -4.260891|   -5.863363|
|         615|   -6.365340|   -4.069608|   -4.268011|   -5.867634|
|         616|   -6.376376|   -4.067977|   -4.275476|   -5.871940|
|         617|   -6.387928|   -4.066448|   -4.283258|   -5.876286|
|         618|   -6.399977|   -4.065037|   -4.291313|   -5.880673|
|         619|   -6.412486|   -4.063752|   -4.299599|   -5.885102|
|         620|   -6.425439|   -4.062606|   -4.308106|   -5.889575|
|         621|   -6.438790|   -4.061601|   -4.316833|   -5.894094|
|         622|   -6.452465|   -4.060746|   -4.325658|   -5.898658|
|         623|   -6.466315|   -4.060044|   -4.334465|   -5.903270|
|         624|   -6.480225|   -4.059487|   -4.343166|   -5.907930|
|         625|   -6.494115|   -4.059072|   -4.351655|   -5.912639|
|         626|   -6.507807|   -4.058777|   -4.359855|   -5.917400|
|         627|   -6.521219|   -4.058584|   -4.367591|   -5.922209|
|         628|   -6.534112|   -4.058485|   -4.374653|   -5.927068|
|         629|   -6.546338|   -4.058485|   -4.380892|   -5.931977|
|         630|   -6.557757|   -4.058611|   -4.386276|   -5.936934|
|         631|   -6.568130|   -4.058893|   -4.390893|   -5.941942|
|         632|   -6.577297|   -4.059344|   -4.394845|   -5.946992|
|         633|   -6.585090|   -4.059957|   -4.398272|   -5.952084|
|         634|   -6.591390|   -4.060702|   -4.401208|   -5.957213|
|         635|   -6.596151|   -4.061544|   -4.403627|   -5.962377|
|         636|   -6.599308|   -4.062455|   -4.405474|   -5.967571|
|         637|   -6.600935|   -4.063427|   -4.406699|   -5.972791|
|         638|   -6.601086|   -4.064466|   -4.407318|   -5.978034|
|         639|   -6.599938|   -4.065582|   -4.407405|   -5.983291|
|         640|   -6.597627|   -4.066783|   -4.407065|   -5.988556|
|         641|   -6.594363|   -4.068068|   -4.406392|   -5.993821|
|         642|   -6.590290|   -4.069429|   -4.405473|   -5.999082|
|         643|   -6.585564|   -4.070843|   -4.404332|   -6.004335|
|         644|   -6.580329|   -4.072290|   -4.402991|   -6.009580|
|         645|   -6.574763|   -4.073752|   -4.401457|   -6.014817|
|         646|   -6.568962|   -4.075217|   -4.399747|   -6.020048|
|         647|   -6.563038|   -4.076672|   -4.397797|   -6.025283|
|         648|   -6.557103|   -4.078109|   -4.395503|   -6.030526|
|         649|   -6.551213|   -4.079538|   -4.392838|   -6.035782|
|         650|   -6.545476|   -4.080987|   -4.389918|   -6.041051|
|         651|   -6.539815|   -4.082486|   -4.386943|   -6.046341|
|         652|   -6.534282|   -4.084068|   -4.384047|   -6.051649|
|         653|   -6.528806|   -4.085747|   -4.381360|   -6.056977|
|         654|   -6.523380|   -4.087521|   -4.378912|   -6.062315|
|         655|   -6.517955|   -4.089381|   -4.376690|   -6.067660|
|         656|   -6.512505|   -4.091314|   -4.374675|   -6.073006|
|         657|   -6.507025|   -4.093311|   -4.372780|   -6.078343|
|         658|   -6.501457|   -4.095372|   -4.370933|   -6.083657|
|         659|   -6.495800|   -4.097498|   -4.369087|   -6.088938|
|         660|   -6.490042|   -4.099711|   -4.367231|   -6.094177|
|         661|   -6.484172|   -4.102018|   -4.365399|   -6.099365|
|         662|   -6.478153|   -4.104408|   -4.363620|   -6.104493|
|         663|   -6.471944|   -4.106875|   -4.361882|   -6.109562|
|         664|   -6.465493|   -4.109401|   -4.360170|   -6.114575|
|         665|   -6.458781|   -4.111981|   -4.358447|   -6.119544|
|         666|   -6.451812|   -4.114603|   -4.356690|   -6.124481|
|         667|   -6.444589|   -4.117270|   -4.354839|   -6.129402|
|         668|   -6.437141|   -4.120000|   -4.352906|   -6.134323|
|         669|   -6.429509|   -4.122828|   -4.350902|   -6.139258|
|         670|   -6.421694|   -4.125785|   -4.348893|   -6.144216|
|         671|   -6.413732|   -4.128899|   -4.346891|   -6.149206|
|         672|   -6.405673|   -4.132189|   -4.344967|   -6.154228|
|         673|   -6.397602|   -4.135671|   -4.343225|   -6.159269|
|         674|   -6.389498|   -4.139352|   -4.341682|   -6.164316|
|         675|   -6.381342|   -4.143231|   -4.340374|   -6.169354|
|         676|   -6.373146|   -4.147285|   -4.339338|   -6.174362|
|         677|   -6.364918|   -4.151486|   -4.338595|   -6.179314|
|         678|   -6.356669|   -4.155788|   -4.338138|   -6.184182|
|         679|   -6.348417|   -4.160146|   -4.337900|   -6.188932|
|         680|   -6.340175|   -4.164527|   -4.337841|   -6.193526|
|         681|   -6.331976|   -4.168911|   -4.337933|   -6.197926|
|         682|   -6.323859|   -4.173287|   -4.338149|   -6.202083|
|         683|   -6.315838|   -4.177640|   -4.338472|   -6.205953|
|         684|   -6.307929|   -4.181955|   -4.338879|   -6.209507|
|         685|   -6.300152|   -4.186208|   -4.339382|   -6.212696|
|         686|   -6.292505|   -4.190381|   -4.339980|   -6.215471|
|         687|   -6.284985|   -4.194466|   -4.340679|   -6.217797|
|         688|   -6.277583|   -4.198466|   -4.341481|   -6.219631|
|         689|   -6.270310|   -4.202387|   -4.342432|   -6.220947|
|         690|   -6.263179|   -4.206242|   -4.343581|   -6.221702|
|         691|   -6.256207|   -4.210039|   -4.344964|   -6.221874|
|         692|   -6.249406|   -4.213785|   -4.346575|   -6.221410|
|         693|   -6.242785|   -4.217492|   -4.348388|   -6.220276|
|         694|   -6.236390|   -4.221164|   -4.350026|   -6.218465|
|         695|   -6.230114|   -4.224798|   -4.351749|   -6.215938|
|         696|   -6.223982|   -4.228336|   -4.353607|   -6.212640|
|         697|   -6.217981|   -4.231700|   -4.355580|   -6.208526|
|         698|   -6.212080|   -4.234804|   -4.357604|   -6.203541|
|         699|   -6.206266|   -4.237606|   -4.359585|   -6.197649|
|         700|   -6.200508|   -4.240091|   -4.361405|   -6.190859|
|         701|   -6.194767|   -4.242289|   -4.363248|   -6.183104|
|         702|   -6.189054|   -4.244225|   -4.365244|   -6.174390|
|         703|   -6.183328|   -4.245931|   -4.367452|   -6.164718|
|         704|   -6.177665|   -4.247451|   -4.369105|   -6.154220|
|         705|   -6.171827|   -4.248898|   -4.370760|   -6.142989|
|         706|   -6.165884|   -4.250396|   -4.372572|   -6.131108|
|         707|   -6.159831|   -4.252126|   -4.374650|   -6.118867|
|         708|   -6.153701|   -4.254285|   -4.376186|   -6.106699|
|         709|   -6.147456|   -4.257007|   -4.374177|   -6.095389|
|         710|   -6.140609|   -4.260491|   -4.371199|   -6.085070|
|         711|   -6.133876|   -4.264684|   -4.368226|   -6.075848|
|         712|   -6.127528|   -4.269512|   -4.365665|   -6.067765|
|         713|   -6.121473|   -4.274849|   -4.363690|   -6.060749|
|         714|   -6.115757|   -4.280545|   -4.362367|   -6.054683|
|         715|   -6.110448|   -4.286378|   -4.358739|   -6.049873|
|         716|   -6.105312|   -4.292378|   -4.353921|   -6.045969|
|         717|   -6.100517|   -4.298372|   -4.349256|   -6.042572|
|         718|   -6.095840|   -4.304246|   -4.345037|   -6.039658|
|         719|   -6.091932|   -4.310078|   -4.341269|   -6.036733|
|         720|   -6.087893|   -4.315736|   -4.337987|   -6.033915|
|         721|   -6.084613|   -4.321377|   -4.334901|   -6.030962|
|         722|   -6.081242|   -4.326894|   -4.332143|   -6.027891|
|         723|   -6.078456|   -4.332472|   -4.329459|   -6.024638|
|         724|   -6.075520|   -4.338011|   -4.326979|   -6.021315|
|         725|   -6.073029|   -4.343666|   -4.324489|   -6.017831|
|         726|   -6.070556|   -4.349387|   -4.322065|   -6.014311|
|         727|   -6.068224|   -4.355208|   -4.319545|   -6.010847|
|         728|   -6.065953|   -4.361072|   -4.317033|   -6.007489|
|         729|   -6.063973|   -4.367009|   -4.314564|   -6.004225|
|         730|   -6.062086|   -4.373087|   -4.312090|   -6.001256|
|         731|   -6.060315|   -4.379167|   -4.309601|   -5.998424|
|         732|   -6.058738|   -4.385333|   -4.307163|   -5.995762|
|         733|   -6.057292|   -4.391528|   -4.304863|   -5.993353|
|         734|   -6.055873|   -4.397610|   -4.302469|   -5.991285|
|         735|   -6.054534|   -4.403508|   -4.300126|   -5.989623|
|         736|   -6.053382|   -4.409172|   -4.297921|   -5.988225|
|         737|   -6.052325|   -4.414522|   -4.295735|   -5.986993|
|         738|   -6.051350|   -4.419517|   -4.293577|   -5.985995|
|         739|   -6.050450|   -4.424095|   -4.291481|   -5.985243|
|         740|   -6.049584|   -4.428165|   -4.289459|   -5.985085|
|         741|   -6.048923|   -4.431732|   -4.287577|   -5.984896|
|         742|   -6.048355|   -4.434714|   -4.285663|   -5.984892|
|         743|   -6.047873|   -4.437069|   -4.283926|   -5.984795|
|         744|   -6.047584|   -4.438701|   -4.282280|   -5.984663|
|         745|   -6.047363|   -4.439732|   -4.280816|   -5.984516|
|         746|   -6.047281|   -4.440259|   -4.279565|   -5.984241|
|         747|   -6.047237|   -4.440388|   -4.278517|   -5.984076|
|         748|   -6.047417|   -4.440126|   -4.277613|   -5.983622|
|         749|   -6.047646|   -4.439495|   -4.276877|   -5.983169|
|         750|   -6.047927|   -4.438401|   -4.276274|   -5.982778|
|         751|   -6.048309|   -4.436835|   -4.275778|   -5.982362|
|         752|   -6.048851|   -4.434903|   -4.275413|   -5.981759|
|         753|   -6.049551|   -4.432718|   -4.275188|   -5.980758|
|         754|   -6.050393|   -4.430324|   -4.275040|   -5.979302|
|         755|   -6.051386|   -4.427805|   -4.275110|   -5.977285|
|         756|   -6.052472|   -4.425172|   -4.275213|   -5.974582|
|         757|   -6.053617|   -4.422504|   -4.275428|   -5.971298|
|         758|   -6.054827|   -4.419730|   -4.275836|   -5.967385|
|         759|   -6.056081|   -4.416875|   -4.276470|   -5.963073|
|         760|   -6.057411|   -4.414098|   -4.277334|   -5.958398|
|         761|   -6.058779|   -4.411587|   -4.278381|   -5.953354|
|         762|   -6.060173|   -4.409434|   -4.279560|   -5.947987|
|         763|   -6.061608|   -4.407626|   -4.280875|   -5.942478|
|         764|   -6.063042|   -4.406079|   -4.282363|   -5.937136|
|         765|   -6.064418|   -4.404795|   -4.284017|   -5.932224|
|         766|   -6.065704|   -4.403818|   -4.285813|   -5.927841|
|         767|   -6.066925|   -4.403192|   -4.287701|   -5.923917|
|         768|   -6.068141|   -4.402903|   -4.289641|   -5.920336|
|         769|   -6.069371|   -4.402864|   -4.291635|   -5.917038|
|         770|   -6.070573|   -4.402981|   -4.293695|   -5.913987|
|         771|   -6.071695|   -4.403237|   -4.295834|   -5.911123|
|         772|   -6.072752|   -4.403618|   -4.298034|   -5.908366|
|         773|   -6.073785|   -4.404067|   -4.300279|   -5.905655|
|         774|   -6.074788|   -4.404477|   -4.302592|   -5.902999|
|         775|   -6.075716|   -4.404766|   -4.305007|   -5.900530|
|         776|   -6.076615|   -4.404860|   -4.307550|   -5.898162|
|         777|   -6.077477|   -4.404685|   -4.310217|   -5.895854|
|         778|   -6.078281|   -4.404192|   -4.312977|   -5.893694|
|         779|   -6.079053|   -4.403409|   -4.315793|   -5.891617|
|         780|   -6.079822|   -4.402380|   -4.318643|   -5.889642|
|         781|   -6.080562|   -4.401159|   -4.321506|   -5.888011|
|         782|   -6.081242|   -4.399737|   -4.324361|   -5.886638|
|         783|   -6.082059|   -4.398138|   -4.327188|   -5.885557|
|         784|   -6.082790|   -4.396390|   -4.329988|   -5.885093|
|         785|   -6.083710|   -4.394416|   -4.332733|   -5.884869|
|         786|   -6.084706|   -4.392192|   -4.335410|   -5.884910|
|         787|   -6.085768|   -4.389698|   -4.338004|   -5.885054|
|         788|   -6.086823|   -4.386881|   -4.340509|   -5.885467|
|         789|   -6.087999|   -4.383724|   -4.342929|   -5.886084|
|         790|   -6.089265|   -4.380194|   -4.345314|   -5.886987|
|         791|   -6.090710|   -4.376363|   -4.347703|   -5.888448|
|         792|   -6.092088|   -4.372206|   -4.350173|   -5.890667|
|         793|   -6.093741|   -4.367698|   -4.352725|   -5.893430|
|         794|   -6.095751|   -4.362971|   -4.355413|   -5.896579|
|         795|   -6.097869|   -4.357902|   -4.358216|   -5.900505|
|         796|   -6.100041|   -4.352418|   -4.361093|   -5.905111|
|         797|   -6.102759|   -4.346571|   -4.364025|   -5.910257|
|         798|   -6.105747|   -4.340467|   -4.367159|   -5.915879|
|         799|   -6.109044|   -4.334122|   -4.370442|   -5.921987|
|         800|   -6.112723|   -4.327645|   -4.373903|   -5.928418|
|         801|   -6.116747|   -4.321072|   -4.377556|   -5.935194|
|         802|   -6.120891|   -4.314412|   -4.381470|   -5.942318|
|         803|   -6.125326|   -4.307758|   -4.385554|   -5.949435|
|         804|   -6.130041|   -4.301178|   -4.389709|   -5.956203|
|         805|   -6.134836|   -4.294747|   -4.393986|   -5.962444|
|         806|   -6.139673|   -4.288539|   -4.398351|   -5.968170|
|         807|   -6.144575|   -4.282621|   -4.402758|   -5.973180|
|         808|   -6.149511|   -4.277029|   -4.407150|   -5.977398|
|         809|   -6.154425|   -4.271767|   -4.411408|   -5.980763|
|         810|   -6.159328|   -4.266823|   -4.415409|   -5.983323|
|         811|   -6.164220|   -4.262196|   -4.419056|   -5.985211|
|         812|   -6.169025|   -4.257891|   -4.422243|   -5.986585|
|         813|   -6.173732|   -4.253885|   -4.425010|   -5.987530|
|         814|   -6.178329|   -4.250168|   -4.427335|   -5.988257|
|         815|   -6.182755|   -4.246826|   -4.429382|   -5.989013|
|         816|   -6.186997|   -4.243945|   -4.431341|   -5.990163|
|         817|   -6.191062|   -4.241539|   -4.433455|   -5.992140|
|         818|   -6.195092|   -4.239633|   -4.435887|   -5.995205|
|         819|   -6.199343|   -4.238200|   -4.438684|   -5.999425|
|         820|   -6.204115|   -4.237182|   -4.441923|   -6.005091|
|         821|   -6.209263|   -4.236533|   -4.445665|   -6.012314|
|         822|   -6.214711|   -4.236238|   -4.449700|   -6.020829|
|         823|   -6.220625|   -4.236144|   -4.454006|   -6.030258|
|         824|   -6.226911|   -4.236174|   -4.458378|   -6.040429|
|         825|   -6.233417|   -4.236228|   -4.462617|   -6.051136|
|         826|   -6.240031|   -4.236239|   -4.466593|   -6.062257|
|         827|   -6.246230|   -4.236187|   -4.470293|   -6.073430|
|         828|   -6.252139|   -4.236038|   -4.473684|   -6.084211|
|         829|   -6.257590|   -4.235829|   -4.476810|   -6.094112|
|         830|   -6.262526|   -4.235549|   -4.479752|   -6.103247|
|         831|   -6.266984|   -4.235211|   -4.482457|   -6.110425|
|         832|   -6.270945|   -4.234872|   -4.484818|   -6.115536|
|         833|   -6.274457|   -4.234598|   -4.486886|   -6.120195|
|         834|   -6.277477|   -4.234432|   -4.488663|   -6.122901|
|         835|   -6.280924|   -4.234339|   -4.490214|   -6.123287|
|         836|   -6.283795|   -4.234304|   -4.491353|   -6.121089|
|         837|   -6.287243|   -4.234250|   -4.491987|   -6.116975|
|         838|   -6.289632|   -4.234249|   -4.492327|   -6.110890|
|         839|   -6.291878|   -4.234281|   -4.492339|   -6.103313|
|         840|   -6.292791|   -4.234338|   -4.492223|   -6.094400|
|         841|   -6.293199|   -4.234442|   -4.491969|   -6.084491|
|         842|   -6.292847|   -4.234557|   -4.491662|   -6.073490|
|         843|   -6.292873|   -4.234675|   -4.491217|   -6.062758|
|         844|   -6.291200|   -4.234730|   -4.490662|   -6.052465|
|         845|   -6.290285|   -4.234645|   -4.489977|   -6.041532|
|         846|   -6.289104|   -4.234346|   -4.488961|   -6.029402|
|         847|   -6.287905|   -4.233778|   -4.487823|   -6.017641|
|         848|   -6.283999|   -4.233054|   -4.486688|   -6.007555|
|         849|   -6.279698|   -4.232212|   -4.485596|   -5.997719|
|         850|   -6.274878|   -4.231441|   -4.484937|   -5.987731|
|         851|   -6.269038|   -4.230789|   -4.484726|   -5.980425|
|         852|   -6.264298|   -4.230241|   -4.484358|   -5.975116|
|         853|   -6.263906|   -4.230159|   -4.484078|   -5.971428|
|         854|   -6.262793|   -4.230397|   -4.485850|   -5.969401|
|         855|   -6.265854|   -4.230444|   -4.489733|   -5.968048|
|         856|   -6.274113|   -4.230261|   -4.495157|   -5.967950|
|         857|   -6.284579|   -4.230540|   -4.501837|   -5.969324|
|         858|   -6.297452|   -4.231495|   -4.508756|   -5.971807|
|         859|   -6.310807|   -4.232956|   -4.515706|   -5.974380|
|         860|   -6.324555|   -4.234370|   -4.522850|   -5.975948|
|         861|   -6.337662|   -4.235592|   -4.529477|   -5.975920|
|         862|   -6.348650|   -4.236766|   -4.534471|   -5.974447|
|         863|   -6.357021|   -4.237937|   -4.537946|   -5.972207|
|         864|   -6.362730|   -4.238988|   -4.540339|   -5.970064|
|         865|   -6.366574|   -4.239774|   -4.541439|   -5.968868|
|         866|   -6.368751|   -4.240250|   -4.541116|   -5.968673|
|         867|   -6.369400|   -4.240548|   -4.538994|   -5.968631|
|         868|   -6.368871|   -4.240755|   -4.535482|   -5.967763|
|         869|   -6.367504|   -4.241105|   -4.532215|   -5.965622|
|         870|   -6.364823|   -4.241753|   -4.529502|   -5.962740|
|         871|   -6.361494|   -4.242583|   -4.526160|   -5.959954|
|         872|   -6.359128|   -4.243319|   -4.522632|   -5.957963|
|         873|   -6.359458|   -4.243868|   -4.520737|   -5.957077|
|         874|   -6.363382|   -4.244311|   -4.521821|   -5.957268|
|         875|   -6.370845|   -4.244746|   -4.526124|   -5.958297|
|         876|   -6.381523|   -4.245253|   -4.533050|   -5.959816|
|         877|   -6.395366|   -4.245873|   -4.540392|   -5.961517|
|         878|   -6.414374|   -4.246686|   -4.549436|   -5.962927|
|         879|   -6.433987|   -4.247774|   -4.558158|   -5.963852|
|         880|   -6.451555|   -4.249091|   -4.565325|   -5.964252|
|         881|   -6.466805|   -4.250521|   -4.570996|   -5.964196|
|         882|   -6.480110|   -4.251980|   -4.575548|   -5.963767|
|         883|   -6.491498|   -4.253396|   -4.579217|   -5.963107|
|         884|   -6.500927|   -4.254710|   -4.582037|   -5.962292|
|         885|   -6.508303|   -4.255867|   -4.583990|   -5.961398|
|         886|   -6.513595|   -4.256858|   -4.585039|   -5.960471|
|         887|   -6.516942|   -4.257780|   -4.585164|   -5.959529|
|         888|   -6.518522|   -4.258717|   -4.584265|   -5.958602|
|         889|   -6.518701|   -4.259741|   -4.582201|   -5.957694|
|         890|   -6.517784|   -4.260927|   -4.578873|   -5.956814|
|         891|   -6.515982|   -4.262236|   -4.574152|   -5.955962|
|         892|   -6.513234|   -4.263718|   -4.568034|   -5.955147|
|         893|   -6.509445|   -4.265407|   -4.561488|   -5.954359|
|         894|   -6.504419|   -4.267015|   -4.554826|   -5.953607|
|         895|   -6.498227|   -4.268301|   -4.547976|   -5.952887|
|         896|   -6.490755|   -4.269135|   -4.540890|   -5.952198|
|         897|   -6.482418|   -4.269416|   -4.533084|   -5.951553|
|         898|   -6.473499|   -4.269138|   -4.524223|   -5.950947|
|         899|   -6.464013|   -4.268350|   -4.514363|   -5.950354|
|         900|   -6.454176|   -4.267107|   -4.503569|   -5.949772|
|         901|   -6.444558|   -4.265508|   -4.491919|   -5.949188|
|         902|   -6.435464|   -4.263718|   -4.479604|   -5.948594|
|         903|   -6.426892|   -4.261882|   -4.466870|   -5.947979|
|         904|   -6.418830|   -4.260143|   -4.454002|   -5.947325|
|         905|   -6.410969|   -4.258510|   -4.441482|   -5.946587|
|         906|   -6.402855|   -4.256938|   -4.429546|   -5.945745|
|         907|   -6.393840|   -4.255262|   -4.418615|   -5.944746|
|         908|   -6.383075|   -4.253333|   -4.408900|   -5.943492|
|         909|   -6.370481|   -4.250855|   -4.399410|   -5.942247|
|         910|   -6.355491|   -4.247990|   -4.390837|   -5.940900|
|         911|   -6.337788|   -4.244682|   -4.384180|   -5.939383|
|         912|   -6.318024|   -4.241345|   -4.379671|   -5.937782|
|         913|   -6.297469|   -4.238660|   -4.377424|   -5.936131|
|         914|   -6.277461|   -4.237303|   -4.377673|   -5.934510|
|         915|   -6.259196|   -4.237578|   -4.380579|   -5.932963|
|         916|   -6.243817|   -4.239422|   -4.385885|   -5.931512|
|         917|   -6.232158|   -4.242574|   -4.392675|   -5.930123|
|         918|   -6.225802|   -4.246868|   -4.399576|   -5.928861|
|         919|   -6.226093|   -4.253088|   -4.405155|   -5.927802|
|         920|   -6.233348|   -4.262481|   -4.407931|   -5.926855|
|         921|   -6.243088|   -4.275719|   -4.407825|   -5.926226|
|         922|   -6.249087|   -4.289900|   -4.410086|   -5.926116|
|         923|   -6.250707|   -4.303058|   -4.417028|   -5.926431|
|         924|   -6.249604|   -4.313981|   -4.426428|   -5.926901|
|         925|   -6.247334|   -4.322052|   -4.436421|   -5.927335|
|         926|   -6.244530|   -4.327958|   -4.446300|   -5.927722|
|         927|   -6.241676|   -4.332794|   -4.454867|   -5.928108|
|         928|   -6.238893|   -4.337028|   -4.461017|   -5.928489|
|         929|   -6.236248|   -4.341007|   -4.465170|   -5.928887|
|         930|   -6.233655|   -4.344994|   -4.467829|   -5.929333|
|         931|   -6.231134|   -4.349036|   -4.469378|   -5.929841|
|         932|   -6.228728|   -4.353177|   -4.470010|   -5.930443|
|         933|   -6.226401|   -4.357442|   -4.469836|   -5.931157|
|         934|   -6.224119|   -4.361806|   -4.468926|   -5.931976|
|         935|   -6.221881|   -4.366198|   -4.467372|   -5.932874|
|         936|   -6.219714|   -4.370535|   -4.465282|   -5.933806|
|         937|   -6.217659|   -4.374740|   -4.462777|   -5.934714|
|         938|   -6.215759|   -4.378768|   -4.459963|   -5.935550|
|         939|   -6.214047|   -4.382585|   -4.456929|   -5.936278|
|         940|   -6.212530|   -4.386180|   -4.453727|   -5.936878|
|         941|   -6.211192|   -4.389559|   -4.450392|   -5.937351|
|         942|   -6.209994|   -4.392734|   -4.446933|   -5.937710|
|         943|   -6.208877|   -4.395717|   -4.443337|   -5.937983|
|         944|   -6.207780|   -4.398518|   -4.439582|   -5.938202|
|         945|   -6.206643|   -4.401144|   -4.435641|   -5.938400|
|         946|   -6.205421|   -4.403610|   -4.431483|   -5.938600|
|         947|   -6.204088|   -4.405938|   -4.427077|   -5.938816|
|         948|   -6.202632|   -4.408162|   -4.422411|   -5.939056|
|         949|   -6.201059|   -4.410324|   -4.417493|   -5.939317|
|         950|   -6.199390|   -4.412460|   -4.412331|   -5.939582|
|         951|   -6.197656|   -4.414601|   -4.406953|   -5.939837|
|         952|   -6.195894|   -4.416772|   -4.401395|   -5.940066|
|         953|   -6.194136|   -4.418986|   -4.395694|   -5.940252|
|         954|   -6.192409|   -4.421246|   -4.389880|   -5.940383|
|         955|   -6.190741|   -4.423541|   -4.383979|   -5.940455|
|         956|   -6.189150|   -4.425851|   -4.378010|   -5.940468|
|         957|   -6.187653|   -4.428133|   -4.371979|   -5.940429|
|         958|   -6.186260|   -4.430340|   -4.365893|   -5.940353|
|         959|   -6.184969|   -4.432426|   -4.359746|   -5.940257|
|         960|   -6.183771|   -4.434324|   -4.353542|   -5.940158|
|         961|   -6.182662|   -4.435969|   -4.347295|   -5.940070|
|         962|   -6.181637|   -4.437297|   -4.341028|   -5.940001|
|         963|   -6.180697|   -4.438256|   -4.334767|   -5.939957|
|         964|   -6.179846|   -4.438818|   -4.328562|   -5.939934|
|         965|   -6.179082|   -4.438975|   -4.322468|   -5.939925|
|         966|   -6.178402|   -4.438742|   -4.316541|   -5.939921|
|         967|   -6.177795|   -4.438161|   -4.310830|   -5.939910|
|         968|   -6.177246|   -4.437293|   -4.305373|   -5.939880|
|         969|   -6.176734|   -4.436213|   -4.300188|   -5.939824|
|         970|   -6.176233|   -4.435000|   -4.295278|   -5.939737|
|         971|   -6.175716|   -4.433725|   -4.290626|   -5.939616|
|         972|   -6.175164|   -4.432454|   -4.286205|   -5.939466|
|         973|   -6.174560|   -4.431230|   -4.281982|   -5.939292|
|         974|   -6.173897|   -4.430075|   -4.277920|   -5.939103|
|         975|   -6.173172|   -4.428996|   -4.273982|   -5.938909|
|         976|   -6.172392|   -4.427972|   -4.270144|   -5.938720|
|         977|   -6.171569|   -4.426961|   -4.266390|   -5.938547|
[...]
|        3370|   -6.724810|   -4.871529|   -5.127708|   -6.685030|
|        3371|   -6.722012|   -4.875917|   -5.123177|   -6.684158|
|        3372|   -6.719272|   -4.880374|   -5.118667|   -6.683320|
|        3373|   -6.716589|   -4.884902|   -5.114179|   -6.682496|
|        3374|   -6.713963|   -4.889502|   -5.109714|   -6.681676|
|        3375|   -6.711392|   -4.894173|   -5.105274|   -6.680859|
|        3376|   -6.708876|   -4.898916|   -5.100861|   -6.680044|
|        3377|   -6.706415|   -4.903731|   -5.096477|   -6.679230|
|        3378|   -6.704008|   -4.908620|   -5.092125|   -6.678417|
|        3379|   -6.701654|   -4.913582|   -5.087805|   -6.677608|
|        3380|   -6.699353|   -4.918618|   -5.083522|   -6.676801|
|        3381|   -6.697106|   -4.923728|   -5.079277|   -6.675996|
|        3382|   -6.694913|   -4.928913|   -5.075072|   -6.675201|
|        3383|   -6.692772|   -4.934172|   -5.070909|   -6.674426|
|        3384|   -6.690683|   -4.939505|   -5.066790|   -6.673683|
|        3385|   -6.688648|   -4.944913|   -5.062717|   -6.672962|
|        3386|   -6.686665|   -4.950396|   -5.058693|   -6.672252|
|        3387|   -6.684736|   -4.955953|   -5.054718|   -6.671551|
|        3388|   -6.682858|   -4.961585|   -5.050794|   -6.670855|
|        3389|   -6.681033|   -4.967291|   -5.046922|   -6.670163|
|        3390|   -6.679261|   -4.973069|   -5.043103|   -6.669474|
|        3391|   -6.677540|   -4.978918|   -5.039338|   -6.668788|
|        3392|   -6.675871|   -4.984835|   -5.035627|   -6.668106|
|        3393|   -6.674253|   -4.990821|   -5.031970|   -6.667427|
|        3394|   -6.672685|   -4.996873|   -5.028369|   -6.666750|
|        3395|   -6.671169|   -5.002989|   -5.024823|   -6.666075|
|        3396|   -6.669703|   -5.009166|   -5.021333|   -6.665399|
|        3397|   -6.668286|   -5.015400|   -5.017897|   -6.664730|
|        3398|   -6.666918|   -5.021689|   -5.014515|   -6.664076|
|        3399|   -6.665599|   -5.028029|   -5.011187|   -6.663436|
|        3400|   -6.664327|   -5.034415|   -5.007912|   -6.662805|
|        3401|   -6.663104|   -5.040842|   -5.004689|   -6.662179|
|        3402|   -6.661927|   -5.047303|   -5.001519|   -6.661555|
|        3403|   -6.660798|   -5.053792|   -4.998400|   -6.660929|
|        3404|   -6.659715|   -5.060301|   -4.995332|   -6.660302|
|        3405|   -6.658679|   -5.066823|   -4.992314|   -6.659674|
|        3406|   -6.657688|   -5.073347|   -4.989345|   -6.659044|
|        3407|   -6.656743|   -5.079863|   -4.986425|   -6.658413|
|        3408|   -6.655844|   -5.086363|   -4.983553|   -6.657795|
|        3409|   -6.654990|   -5.092836|   -4.980729|   -6.657201|
|        3410|   -6.654182|   -5.099269|   -4.977954|   -6.656623|
|        3411|   -6.653419|   -5.105651|   -4.975227|   -6.656052|
|        3412|   -6.652701|   -5.111968|   -4.972548|   -6.655486|
|        3413|   -6.652029|   -5.118205|   -4.969917|   -6.654926|
|        3414|   -6.651402|   -5.124347|   -4.967336|   -6.654370|
|        3415|   -6.650820|   -5.130377|   -4.964805|   -6.653819|
|        3416|   -6.650282|   -5.136278|   -4.962326|   -6.653273|
|        3417|   -6.649790|   -5.142032|   -4.959897|   -6.652732|
|        3418|   -6.649343|   -5.147618|   -4.957522|   -6.652197|
|        3419|   -6.648940|   -5.153015|   -4.955200|   -6.651667|
|        3420|   -6.648582|   -5.158200|   -4.952933|   -6.651146|
|        3421|   -6.648269|   -5.163153|   -4.950722|   -6.650636|
|        3422|   -6.648000|   -5.167850|   -4.948569|   -6.650134|
|        3423|   -6.647775|   -5.172267|   -4.946474|   -6.649638|
|        3424|   -6.647594|   -5.176381|   -4.944439|   -6.649148|
|        3425|   -6.647457|   -5.180169|   -4.942465|   -6.648665|
|        3426|   -6.647365|   -5.183610|   -4.940553|   -6.648188|
|        3427|   -6.647317|   -5.186680|   -4.938706|   -6.647717|
|        3428|   -6.647314|   -5.189360|   -4.936924|   -6.647252|
|        3429|   -6.647355|   -5.191630|   -4.935209|   -6.646794|
|        3430|   -6.647440|   -5.193473|   -4.933563|   -6.646343|
|        3431|   -6.647571|   -5.194873|   -4.931988|   -6.645900|
|        3432|   -6.647748|   -5.195817|   -4.930486|   -6.645464|
|        3433|   -6.647971|   -5.196295|   -4.929059|   -6.645037|
|        3434|   -6.648241|   -5.196301|   -4.927708|   -6.644619|
|        3435|   -6.648559|   -5.195830|   -4.926435|   -6.644210|
|        3436|   -6.648925|   -5.194882|   -4.925243|   -6.643810|
|        3437|   -6.649340|   -5.193458|   -4.924133|   -6.643421|
|        3438|   -6.649804|   -5.191565|   -4.923106|   -6.643042|
|        3439|   -6.650319|   -5.189211|   -4.922166|   -6.642674|
|        3440|   -6.650886|   -5.186409|   -4.921313|   -6.642315|
|        3441|   -6.651505|   -5.183173|   -4.920550|   -6.641966|
|        3442|   -6.652177|   -5.179521|   -4.919877|   -6.641629|
|        3443|   -6.652904|   -5.175471|   -4.919296|   -6.641304|
|        3444|   -6.653685|   -5.171043|   -4.918808|   -6.640989|
|        3445|   -6.654522|   -5.166261|   -4.918413|   -6.640682|
|        3446|   -6.655415|   -5.161148|   -4.918113|   -6.640379|
|        3447|   -6.656365|   -5.155728|   -4.917908|   -6.640077|
|        3448|   -6.657373|   -5.150025|   -4.917798|   -6.639774|
|        3449|   -6.658439|   -5.144066|   -4.917783|   -6.639468|
|        3450|   -6.659563|   -5.137873|   -4.917864|   -6.639156|
|        3451|   -6.660747|   -5.131474|   -4.918038|   -6.638836|
|        3452|   -6.661990|   -5.124892|   -4.918306|   -6.638508|
|        3453|   -6.663292|   -5.118150|   -4.918667|   -6.638171|
|        3454|   -6.664654|   -5.111270|   -4.919120|   -6.637823|
|        3455|   -6.666076|   -5.104274|   -4.919664|   -6.637462|
|        3456|   -6.667558|   -5.097183|   -4.920298|   -6.637086|
|        3457|   -6.669100|   -5.090014|   -4.921022|   -6.636692|
|        3458|   -6.670702|   -5.082787|   -4.921834|   -6.636281|
|        3459|   -6.672364|   -5.075519|   -4.922735|   -6.635852|
|        3460|   -6.674087|   -5.068226|   -4.923723|   -6.635404|
|        3461|   -6.675869|   -5.060922|   -4.924799|   -6.634938|
|        3462|   -6.677711|   -5.053622|   -4.925962|   -6.634453|
|        3463|   -6.679614|   -5.046337|   -4.927212|   -6.633947|
|        3464|   -6.681576|   -5.039080|   -4.928549|   -6.633426|
|        3465|   -6.683599|   -5.031861|   -4.929974|   -6.632889|
|        3466|   -6.685684|   -5.024689|   -4.931487|   -6.632335|
|        3467|   -6.687829|   -5.017572|   -4.933090|   -6.631769|
|        3468|   -6.690034|   -5.010519|   -4.934782|   -6.631199|
|        3469|   -6.692302|   -5.003534|   -4.936564|   -6.630622|
|        3470|   -6.694632|   -4.996625|   -4.938439|   -6.630042|
|        3471|   -6.697026|   -4.989798|   -4.940302|   -6.629478|
|        3472|   -6.699477|   -4.983049|   -4.942214|   -6.628927|
|        3473|   -6.701986|   -4.976381|   -4.944204|   -6.628403|
|        3474|   -6.704555|   -4.969797|   -4.946279|   -6.627949|
|        3475|   -6.707190|   -4.963304|   -4.948448|   -6.627529|
|        3476|   -6.709892|   -4.956901|   -4.950717|   -6.627134|
|        3477|   -6.712660|   -4.950592|   -4.953093|   -6.626761|
|        3478|   -6.715498|   -4.944377|   -4.955575|   -6.626415|
|        3479|   -6.718407|   -4.938258|   -4.958167|   -6.626124|
|        3480|   -6.721387|   -4.932237|   -4.960870|   -6.625871|
|        3481|   -6.724439|   -4.926313|   -4.963683|   -6.625645|
|        3482|   -6.727564|   -4.920489|   -4.966607|   -6.625453|
|        3483|   -6.730762|   -4.914762|   -4.969641|   -6.625298|
|        3484|   -6.734036|   -4.909134|   -4.972786|   -6.625170|
|        3485|   -6.737385|   -4.903604|   -4.976041|   -6.625068|
|        3486|   -6.740809|   -4.898172|   -4.979405|   -6.624992|
|        3487|   -6.744310|   -4.892837|   -4.982880|   -6.624946|
|        3488|   -6.747889|   -4.887599|   -4.986464|   -6.624929|
|        3489|   -6.751547|   -4.882458|   -4.990159|   -6.624946|
|        3490|   -6.755285|   -4.877414|   -4.993964|   -6.624988|
|        3491|   -6.759104|   -4.872464|   -4.997880|   -6.625051|
|        3492|   -6.763007|   -4.867611|   -5.001909|   -6.625133|
|        3493|   -6.766992|   -4.862852|   -5.006051|   -6.625234|
|        3494|   -6.771063|   -4.858186|   -5.010308|   -6.625356|
|        3495|   -6.775220|   -4.853614|   -5.014680|   -6.625497|
|        3496|   -6.779466|   -4.849134|   -5.019170|   -6.625654|
|        3497|   -6.783801|   -4.844745|   -5.023781|   -6.625890|
|        3498|   -6.788221|   -4.840447|   -5.028512|   -6.626323|
|        3499|   -6.792740|   -4.836238|   -5.033367|   -6.626774|
|        3500|   -6.797355|   -4.832117|   -5.038348|   -6.627230|
|        3501|   -6.802065|   -4.828085|   -5.043457|   -6.627682|
|        3502|   -6.806872|   -4.824139|   -5.048696|   -6.628133|
|        3503|   -6.811778|   -4.820278|   -5.054067|   -6.628587|
|        3504|   -6.816785|   -4.816501|   -5.059569|   -6.629042|
|        3505|   -6.821894|   -4.812808|   -5.065206|   -6.629491|
|        3506|   -6.827108|   -4.809197|   -5.070978|   -6.629930|
|        3507|   -6.832426|   -4.805667|   -5.076887|   -6.630361|
|        3508|   -6.837850|   -4.802218|   -5.082932|   -6.630787|
|        3509|   -6.843384|   -4.798848|   -5.089116|   -6.631202|
|        3510|   -6.849026|   -4.795557|   -5.095440|   -6.631606|
|        3511|   -6.854780|   -4.792345|   -5.101905|   -6.631998|
|        3512|   -6.860646|   -4.789210|   -5.108514|   -6.632392|
|        3513|   -6.866626|   -4.786151|   -5.115267|   -6.632777|
|        3514|   -6.872723|   -4.783169|   -5.122168|   -6.633147|
|        3515|   -6.878936|   -4.780262|   -5.129220|   -6.633503|
|        3516|   -6.885269|   -4.777431|   -5.136423|   -6.633845|
|        3517|   -6.891721|   -4.774676|   -5.143780|   -6.634176|
|        3518|   -6.898294|   -4.771994|   -5.151291|   -6.634504|
|        3519|   -6.904991|   -4.769386|   -5.158957|   -6.634818|
|        3520|   -6.911811|   -4.766851|   -5.166779|   -6.635122|
|        3521|   -6.918753|   -4.764387|   -5.174758|   -6.635425|
|        3522|   -6.925820|   -4.761993|   -5.182892|   -6.635718|
|        3523|   -6.933010|   -4.759667|   -5.191183|   -6.636001|
|        3524|   -6.940320|   -4.757408|   -5.199632|   -6.636280|
|        3525|   -6.947752|   -4.755214|   -5.208239|   -6.636677|
|        3526|   -6.955300|   -4.753084|   -5.217005|   -6.637167|
|        3527|   -6.962970|   -4.751016|   -5.225931|   -6.637686|
|        3528|   -6.970756|   -4.749011|   -5.235019|   -6.638203|
|        3529|   -6.978657|   -4.747066|   -5.244269|   -6.638714|
|        3530|   -6.986672|   -4.745183|   -5.253683|   -6.639223|
|        3531|   -6.994798|   -4.743360|   -5.263259|   -6.639734|
|        3532|   -7.003030|   -4.741597|   -5.272998|   -6.640265|
|        3533|   -7.011366|   -4.739893|   -5.282895|   -6.640799|
|        3534|   -7.019804|   -4.738248|   -5.292950|   -6.641340|
|        3535|   -7.028320|   -4.736663|   -5.303160|   -6.642326|
|        3536|   -7.036920|   -4.735135|   -5.313509|   -6.643526|
|        3537|   -7.045614|   -4.733666|   -5.323994|   -6.644792|
|        3538|   -7.054382|   -4.732256|   -5.334590|   -6.646097|
|        3539|   -7.063219|   -4.730906|   -5.345285|   -6.647428|
|        3540|   -7.072099|   -4.729617|   -5.356075|   -6.648820|
|        3541|   -7.081020|   -4.728389|   -5.366943|   -6.650267|
|        3542|   -7.089983|   -4.727224|   -5.377869|   -6.651723|
|        3543|   -7.098957|   -4.726125|   -5.388833|   -6.653170|
|        3544|   -7.107926|   -4.725092|   -5.399805|   -6.654605|
|        3545|   -7.116867|   -4.724127|   -5.410756|   -6.656045|
|        3546|   -7.125771|   -4.723227|   -5.421652|   -6.657479|
|        3547|   -7.134600|   -4.722394|   -5.432454|   -6.658911|
|        3548|   -7.143329|   -4.721628|   -5.443117|   -6.660337|
|        3549|   -7.151923|   -4.720927|   -5.453599|   -6.661750|
|        3550|   -7.160345|   -4.720293|   -5.463853|   -6.663153|
|        3551|   -7.168559|   -4.719724|   -5.473820|   -6.664550|
|        3552|   -7.176514|   -4.719222|   -5.483449|   -6.665931|
|        3553|   -7.184176|   -4.718788|   -5.492677|   -6.667296|
|        3554|   -7.191492|   -4.718419|   -5.501443|   -6.668641|
|        3555|   -7.198408|   -4.718118|   -5.509688|   -6.669962|
|        3556|   -7.204882|   -4.717883|   -5.517347|   -6.671260|
|        3557|   -7.210852|   -4.717715|   -5.524362|   -6.672533|
|        3558|   -7.216272|   -4.717614|   -5.530681|   -6.673780|
|        3559|   -7.221097|   -4.717577|   -5.536248|   -6.675002|
|        3560|   -7.225267|   -4.717609|   -5.541024|   -6.676249|
|        3561|   -7.228749|   -4.717708|   -5.544965|   -6.677536|
|        3562|   -7.231514|   -4.717873|   -5.548023|   -6.678800|
|        3563|   -7.233511|   -4.718107|   -5.550182|   -6.680037|
|        3564|   -7.234739|   -4.718409|   -5.551428|   -6.681248|
|        3565|   -7.235171|   -4.718778|   -5.551744|   -6.682444|
|        3566|   -7.234794|   -4.719217|   -5.551129|   -6.683619|
|        3567|   -7.233637|   -4.719721|   -5.549610|   -6.684767|
|        3568|   -7.231686|   -4.720295|   -5.547222|   -6.685891|
|        3569|   -7.228975|   -4.720938|   -5.544009|   -6.686990|
|        3570|   -7.225551|   -4.721646|   -5.540021|   -6.688063|
|        3571|   -7.221408|   -4.722425|   -5.535329|   -6.689111|
|        3572|   -7.216627|   -4.723270|   -5.530003|   -6.690135|
|        3573|   -7.211252|   -4.724182|   -5.524114|   -6.691157|
|        3574|   -7.205296|   -4.725162|   -5.517715|   -6.692204|
|        3575|   -7.198855|   -4.726207|   -5.510894|   -6.693241|
|        3576|   -7.191959|   -4.727320|   -5.503720|   -6.694236|
|        3577|   -7.184662|   -4.728499|   -5.496283|   -6.695195|
|        3578|   -7.177015|   -4.729740|   -5.488592|   -6.696144|
|        3579|   -7.169040|   -4.731047|   -5.480696|   -6.697082|
|        3580|   -7.160821|   -4.732419|   -5.472702|   -6.698004|
|        3581|   -7.152394|   -4.733851|   -5.464609|   -6.698910|
|        3582|   -7.143769|   -4.735349|   -5.456472|   -6.699822|
|        3583|   -7.135011|   -4.736908|   -5.448322|   -6.700717|
|        3584|   -7.126144|   -4.738525|   -5.440175|   -6.701603|
|        3585|   -7.117188|   -4.740205|   -5.432073|   -6.702472|
|        3586|   -7.108185|   -4.741943|   -5.424031|   -6.703324|
|        3587|   -7.099153|   -4.743738|   -5.416057|   -6.704158|
|        3588|   -7.090105|   -4.745594|   -5.408183|   -6.704976|
|        3589|   -7.081077|   -4.747506|   -5.400411|   -6.705777|
|        3590|   -7.072072|   -4.749473|   -5.392747|   -6.706563|
|        3591|   -7.063105|   -4.751498|   -5.385215|   -6.707332|
|        3592|   -7.054199|   -4.753576|   -5.377809|   -6.708084|
|        3593|   -7.045356|   -4.755708|   -5.370538|   -6.708818|
|        3594|   -7.036590|   -4.757895|   -5.363418|   -6.709534|
|        3595|   -7.027915|   -4.760133|   -5.356443|   -6.710231|
|        3596|   -7.019330|   -4.762424|   -5.349617|   -6.710910|
|        3597|   -7.010843|   -4.764768|   -5.342950|   -6.711570|
|        3598|   -7.002466|   -4.767161|   -5.336434|   -6.712210|
|        3599|   -6.994195|   -4.769605|   -5.330070|   -6.712830|
|        3600|   -6.986037|   -4.772101|   -5.323870|   -6.713431|
|        3601|   -6.978000|   -4.774645|   -5.317825|   -6.714012|
|        3602|   -6.970079|   -4.777238|   -5.311935|   -6.714573|
|        3603|   -6.962279|   -4.779881|   -5.306206|   -6.715113|
|        3604|   -6.954605|   -4.782571|   -5.300630|   -6.715633|
|        3605|   -6.947052|   -4.785308|   -5.295204|   -6.716134|
|        3606|   -6.939624|   -4.788094|   -5.289934|   -6.716614|
|        3607|   -6.932323|   -4.790927|   -5.284815|   -6.717073|
|        3608|   -6.925147|   -4.793806|   -5.279841|   -6.717513|
|        3609|   -6.918094|   -4.796733|   -5.275016|   -6.717933|
|        3610|   -6.911167|   -4.799706|   -5.270335|   -6.718334|
|        3611|   -6.904365|   -4.802723|   -5.265791|   -6.718715|
|        3612|   -6.897683|   -4.805789|   -5.261388|   -6.719078|
|        3613|   -6.891126|   -4.808902|   -5.257125|   -6.719423|
|        3614|   -6.884693|   -4.812059|   -5.252994|   -6.719751|
|        3615|   -6.878377|   -4.815264|   -5.248996|   -6.720063|
|        3616|   -6.872182|   -4.818516|   -5.245130|   -6.720358|
|        3617|   -6.866105|   -4.821814|   -5.241389|   -6.720638|
|        3618|   -6.860144|   -4.825158|   -5.237768|   -6.720905|
|        3619|   -6.854297|   -4.828551|   -5.234273|   -6.721158|
|        3620|   -6.848565|   -4.831989|   -5.230899|   -6.721399|
|        3621|   -6.842946|   -4.835474|   -5.227641|   -6.721629|
|        3622|   -6.837436|   -4.839007|   -5.224500|   -6.721848|
|        3623|   -6.832034|   -4.842588|   -5.221474|   -6.722059|
|        3624|   -6.826741|   -4.846214|   -5.218556|   -6.722261|
|        3625|   -6.821552|   -4.849888|   -5.215744|   -6.722457|
|        3626|   -6.816465|   -4.853609|   -5.213040|   -6.722647|
|        3627|   -6.811482|   -4.857377|   -5.210441|   -6.722832|
|        3628|   -6.806598|   -4.861190|   -5.207942|   -6.723014|
|        3629|   -6.801811|   -4.865052|   -5.205541|   -6.723193|
|        3630|   -6.797121|   -4.868960|   -5.203240|   -6.723370|
|        3631|   -6.792527|   -4.872913|   -5.201032|   -6.723547|
|        3632|   -6.788025|   -4.876912|   -5.198918|   -6.723724|
|        3633|   -6.783615|   -4.880957|   -5.196896|   -6.723904|
|        3634|   -6.779294|   -4.885047|   -5.194963|   -6.724089|
|        3635|   -6.775062|   -4.889181|   -5.193115|   -6.724279|
|        3636|   -6.770916|   -4.893361|   -5.191349|   -6.724473|
|        3637|   -6.766853|   -4.897585|   -5.189667|   -6.724673|
|        3638|   -6.762875|   -4.901852|   -5.188067|   -6.724880|
|        3639|   -6.758980|   -4.906163|   -5.186546|   -6.725096|
|        3640|   -6.755164|   -4.910517|   -5.185105|   -6.725321|
|        3641|   -6.751429|   -4.914915|   -5.183740|   -6.725556|
|        3642|   -6.747770|   -4.919354|   -5.182447|   -6.725800|
|        3643|   -6.744187|   -4.923835|   -5.181224|   -6.726056|
|        3644|   -6.740679|   -4.928359|   -5.180070|   -6.726324|
|        3645|   -6.737244|   -4.932924|   -5.178986|   -6.726603|
|        3646|   -6.733881|   -4.937529|   -5.177971|   -6.726895|
|        3647|   -6.730590|   -4.942176|   -5.177023|   -6.727199|
|        3648|   -6.727369|   -4.946864|   -5.176140|   -6.727517|
|        3649|   -6.724216|   -4.951591|   -5.175321|   -6.727847|
|        3650|   -6.721130|   -4.956359|   -5.174563|   -6.728195|
|        3651|   -6.718111|   -4.961168|   -5.173865|   -6.728558|
|        3652|   -6.715155|   -4.966017|   -5.173226|   -6.728934|
|        3653|   -6.712264|   -4.970905|   -5.172646|   -6.729322|
|        3654|   -6.709435|   -4.975834|   -5.172121|   -6.729721|
|        3655|   -6.706666|   -4.980802|   -5.171651|   -6.730131|
|        3656|   -6.703958|   -4.985810|   -5.171234|   -6.730556|
|        3657|   -6.701309|   -4.990858|   -5.170869|   -6.730993|
|        3658|   -6.698718|   -4.995946|   -5.170557|   -6.731443|
|        3659|   -6.696185|   -5.001073|   -5.170297|   -6.731907|
|        3660|   -6.693707|   -5.006241|   -5.170086|   -6.732385|
|        3661|   -6.691284|   -5.011450|   -5.169923|   -6.732876|
|        3662|   -6.688917|   -5.016698|   -5.169775|   -6.733379|
|        3663|   -6.686601|   -5.021986|   -5.169658|   -6.733892|
|        3664|   -6.684335|   -5.027315|   -5.169578|   -6.734416|
|        3665|   -6.682121|   -5.032686|   -5.169538|   -6.734952|
|        3666|   -6.679957|   -5.038100|   -5.169542|   -6.735494|
|        3667|   -6.677844|   -5.043554|   -5.169587|   -6.736052|
