scsub> Executing:  'cd /home/hem1dev/Codes/SU2_Github_Mark_Test/SU2/Venturi'


WARNING: CONV_CRITERIA is deprecated. SU2 will choose the criteria automatically based on the CONV_FIELD.
That is, RESIDUAL for any RMS_* BGS_* value, and CAUCHY for coefficients such as DRAG etc.


-------------------------------------------------------------------------
|    ___ _   _ ___                                                      |
|   / __| | | |_  )   Release 7.1.1 "Blackbird"                         |
|   \__ \ |_| |/ /                                                      |
|   |___/\___//___|   Suite (Computational Fluid Dynamics Code)         |
|                                                                       |
-------------------------------------------------------------------------
| SU2 Project Website: https://su2code.github.io                        |
|                                                                       |
| The SU2 Project is maintained by the SU2 Foundation                   |
| (http://su2foundation.org)                                            |
-------------------------------------------------------------------------
| Copyright 2012-2021, SU2 Contributors                                 |
|                                                                       |
| SU2 is free software; you can redistribute it and/or                  |
| modify it under the terms of the GNU Lesser General Public            |
| License as published by the Free Software Foundation; either          |
| version 2.1 of the License, or (at your option) any later version.    |
|                                                                       |
| SU2 is distributed in the hope that it will be useful,                |
| but WITHOUT ANY WARRANTY; without even the implied warranty of        |
| MERCHANTABILITY or FITNESS FOR A PARTICULAR PURPOSE. See the GNU      |
| Lesser General Public License for more details.                       |
|                                                                       |
| You should have received a copy of the GNU Lesser General Public      |
| License along with SU2. If not, see <http://www.gnu.org/licenses/>.   |
-------------------------------------------------------------------------


WARNING: CONV_CRITERIA is deprecated. SU2 will choose the criteria automatically based on the CONV_FIELD.
That is, RESIDUAL for any RMS_* BGS_* value, and CAUCHY for coefficients such as DRAG etc.


Parsing config file for zone 0


WARNING: CONV_CRITERIA is deprecated. SU2 will choose the criteria automatically based on the CONV_FIELD.
That is, RESIDUAL for any RMS_* BGS_* value, and CAUCHY for coefficients such as DRAG etc.


----------------- Physical Case Definition ( Zone 0 ) -------------------
Incompressible RANS equations.
Turbulence model: Menter's SST
Hybrid RANS/LES: No Hybrid RANS/LES
No restart solution, use the values at infinity (freestream).
Dimensional simulation.
The reference area is 1 m^2.
The semi-span will be computed using the max y(3D) value.
The reference length is 1 m.
Input mesh file name: c6_cms_venturi.cgns

--------------- Space Numerical Integration ( Zone 0 ) ------------------
Flux difference splitting (FDS) upwind scheme for the flow inviscid terms.
Second order integration in space, with slope limiter.
No slope-limiting method. 
Average of gradients with correction (viscous flow terms).
Average of gradients with correction (viscous turbulence terms).
Gradient for upwind reconstruction: Green-Gauss.
Gradient for viscous and source terms: Green-Gauss.

--------------- Time Numerical Integration  ( Zone 0 ) ------------------
Local time stepping (steady state simulation).
Euler implicit method for the flow equations.
FGMRES is used for solving the linear system.
Using a ILU(0) preconditioning.
Convergence criteria of the linear solver: 1e-05.
Max number of linear iterations: 50.
No CFL adaptation.
Courant-Friedrichs-Lewy number:      100
Euler implicit time integration for the turbulence model.

------------------ Convergence Criteria  ( Zone 0 ) ---------------------
Maximum number of solver subiterations: 10000.
Begin convergence monitoring at iteration 10.
Residual minimum value: 1e-10.
Cauchy series min. value: 1e-06.
Number of Cauchy elements: 100.
Begin windowed time average at iteration 0.

-------------------- Output Information ( Zone 0 ) ----------------------
Writing solution files every 1000 iterations.
Writing the convergence history file every 1 inner iterations.
Writing the screen convergence history every 1 inner iterations.
The tabular file format is CSV (.csv).
Convergence history file name: history.
Forces breakdown file name: forces_breakdown.dat.
Surface file name: surface_flow_venturi_mixturedensity_30kW_fine.
Volume file name: flow_venturi_mixturedensity_30kW_fine.
Restart file name: restart_venturi_mixturedensity_30kW_fine.dat.

------------- Config File Boundary Information ( Zone 0 ) ---------------
+-----------------------------------------------------------------------+
|                        Marker Type|                        Marker Name|
+-----------------------------------------------------------------------+
|                     Symmetry plane|                               axis|
+-----------------------------------------------------------------------+
|                     Inlet boundary|                          gas_inlet|
|                                   |                          air_inlet|
+-----------------------------------------------------------------------+
|                    Outlet boundary|                             outlet|
+-----------------------------------------------------------------------+
|                     Heat flux wall|            wall-component1-surface|
+-----------------------------------------------------------------------+

-------------------- Output Preprocessing ( Zone 0 ) --------------------
Screen output fields: INNER_ITER, RMS_PRESSURE, RMS_VELOCITY-X, RMS_VELOCITY-Y, RMS_PASSIVE_SCALAR
History output group(s): RMS_RES, AERO_COEFF, FLOW_COEFF
Ignoring Convergence Field(s): RMS_DENSITY 
Convergence field(s): RMS_PRESSURE, RMS_VELOCITY-X, RMS_VELOCITY-Y, RMS_TKE
Warning: No (valid) fields chosen for time convergence monitoring. Time convergence monitoring inactive.
  Info: Ignoring the following volume output fields/groups:
  SOURCE, LOOKUP
Volume output fields: DENSITY, SOLUTION, PRIMITIVE, RESIDUAL, COORDINATES

------------------- Geometry Preprocessing ( Zone 0 ) -------------------
Reading the CGNS file: c6_cms_venturi.cgns.
CGNS file contains 1 database(s).
Database 1, Base:  cell dimension of 2, physical dimension of 2.
1 total zone(s).
Zone 1, Zone: 292948 total vertices, 295883 total elements.
Loading CoordinateX values into linear partitions.
Loading CoordinateY values into linear partitions.
Distributing connectivity across all ranks.
Number of connectivity sections is 6.
Section gas_inlet contains 51 elements of type Mixed.
Section air_inlet contains 150 elements of type Mixed.
Section outlet contains 157 elements of type Mixed.
Section axis contains 1721 elements of type Mixed.
Section component1-surface contains 290183 elements of type Mixed.
Section wall-component1-surface contains 3621 elements of type Mixed.
Loading surface section gas_inlet from file.
Loading surface section air_inlet from file.
Loading surface section outlet from file.
Loading surface section axis from file.
Loading volume section component1-surface from file.
Loading surface section wall-component1-surface from file.
Two dimensional problem.
292948 grid points before partitioning.
290183 volume elements before partitioning.
5 surface markers.
51 boundary elements in index 0 (Marker = gas_inlet).
150 boundary elements in index 1 (Marker = air_inlet).
157 boundary elements in index 2 (Marker = outlet).
1721 boundary elements in index 3 (Marker = axis).
3621 boundary elements in index 4 (Marker = wall-component1-surface).
Executing the partitioning functions.
Building the graph adjacency structure.
Calling ParMETIS... graph partitioning complete (13666 edge cuts).
Distributing ParMETIS coloring.
Rebalancing vertices.
Rebalancing volume element connectivity.
Rebalancing markers and surface elements.
320626 vertices including ghost points. 
303885 interior elements including halo cells. 
174 triangles.
303711 quadrilaterals.
Establishing MPI communication patterns.
Setting point connectivity.
Renumbering points (Reverse Cuthill McKee Ordering).
Recomputing point connectivity.
Setting element connectivity.
Checking the numerical grid orientation.
All volume elements are correctly orientend.
All surface elements are correctly orientend.
Identifying edges and vertices.
Setting the control volume structure.
Area of the computational grid: 0.00286009.
Searching for the closest normal neighbors to the surfaces.
Storing a mapping from global to local point index.
Compute the surface curvature.
Max K: 25766.3. Mean K: 66.0693. Standard deviation K: 1007.76.
Checking for periodicity.
Computing mesh quality statistics for the dual control volumes.
+--------------------------------------------------------------+
|           Mesh Quality Metric|        Minimum|        Maximum|
+--------------------------------------------------------------+
|    Orthogonality Angle (deg.)|        45.2115|             90|
|     CV Face Area Aspect Ratio|              1|        10.3208|
|           CV Sub-Volume Ratio|              1|        9.85984|
+--------------------------------------------------------------+
Finding max control volume width.
Communicating number of neighbors.
Wetted area = 0 m.
Area projection in the x-plane = 0 m, y-plane = 0 m.
Max. coordinate in the x-direction = -1e+10 m, y-direction = -1e+10 m.
Min. coordinate in the x-direction = 1e+10 m, y-direction = 1e+10 m.
Checking if Euler & Symmetry markers are straight/plane:
Boundary marker axis is a single straight.
Computing wall distances.

-------------------- Solver Preprocessing ( Zone 0 ) --------------------
Incompressible flow: rho_ref, vel_ref, temp_ref, p_ref
are set to 1.0 in order to perform a dimensional calculation.
Force coefficients computed using initial values.
The reference area for force coeffs. is 1 m^2.
The reference length for force coeffs. is 1 m.
The pressure is decomposed into thermodynamic and dynamic components.
The initial value of the dynamic pressure is 0.
Mach number: 0, computed using fluid speed of sound.
For external flows, the initial state is imposed at the far-field.
Angle of attack (deg): 0, computed using the initial velocity.
Side slip angle (deg): 0, computed using the initial velocity.
Reynolds number per meter: 66852.4, computed using initial values.
Reynolds number is a byproduct of inputs only (not used internally).
SI units only. The grid should be dimensional (meters).
Energy equation is active and coupled for variable density.

-- Models:
+------------------------------------------------------------------------------+
|          Viscosity Model|        Conductivity Model|              Fluid Model|
+------------------------------------------------------------------------------+
|               SUTHERLAND|          CONSTANT_PRANDTL|+------------------------------------------------------------------------------+
-- Fluid properties:
+------------------------------------------------------------------------------+
|                  Name|    Dim. value|    Ref. value|      Unit|Non-dim. value|
+------------------------------------------------------------------------------+
|        Ref. Viscosity|     1.716e-05|             1|   N.s/m^2|     1.716e-05|
|      Sutherland Temp.|        273.15|             1|         K|        273.15|
|     Sutherland Const.|         110.4|             1|         K|         110.4|
+------------------------------------------------------------------------------+
|        Prandtl (Lam.)|             -|             -|         -|          0.72|
|       Prandtl (Turb.)|             -|             -|         -|           0.9|
+------------------------------------------------------------------------------+
-- Initial and free-stream conditions:
+------------------------------------------------------------------------------+
|                  Name|    Dim. value|    Ref. value|      Unit|Non-dim. value|
+------------------------------------------------------------------------------+
|      Dynamic Pressure|             0|             1|        Pa|             0|
|        Total Pressure|           0.6|             1|        Pa|           0.6|
|               Density|           1.2|             1|    kg/m^3|           1.2|
|           Temperature|           300|             1|         K|           300|
|            Velocity-X|             1|             1|       m/s|             1|
|            Velocity-Y|             0|             1|       m/s|             0|
|    Velocity Magnitude|             1|             1|       m/s|             1|
+------------------------------------------------------------------------------+
|             Viscosity|     1.795e-05|             1|   N.s/m^2|     1.795e-05|
|          Conductivity|             -|             1|   W/m^2.K|             -|
|     Turb. Kin. Energy|       0.00375|             1|   m^2/s^2|       0.00375|
|     Spec. Dissipation|       25.0696|             1|       1/s|       25.0696|
+------------------------------------------------------------------------------+
|           Mach Number|             -|             -|         -|             0|
|       Reynolds Number|             -|             -|         -|       66852.4|
+------------------------------------------------------------------------------+
Initialize Jacobian structure (Navier-Stokes). MG level: 0.
Initialize Jacobian structure (passive scalar model).
Initialize Jacobian structure (SST model).

------------------- Numerics Preprocessing ( Zone 0 ) -------------------

----------------- Integration Preprocessing ( Zone 0 ) ------------------

------------------- Iteration Preprocessing ( Zone 0 ) ------------------
Euler/Navier-Stokes/RANS fluid iteration.

------------------------------ Begin Solver -----------------------------

Simulation Run using the Single-zone Driver
Initializing passive scalar (initial condition).
initialization = 1 1
+----------------------------------------------------------------+
|  Inner_Iter|      rms[P]|      rms[U]|      rms[V]|      rms[c]|
+----------------------------------------------------------------+
|           0|   -4.749965|   -4.481098|   -3.999037|   -5.346142|
|           1|   -5.085311|   -4.548682|   -4.115118|   -4.972014|
|           2|   -5.455584|   -4.611060|   -4.320950|   -5.264146|
|           3|   -5.516217|   -4.741023|   -4.318738|   -5.447972|
|           4|   -5.715801|   -4.870310|   -4.523583|   -5.527066|
|           5|   -5.815584|   -4.947827|   -4.771347|   -5.568707|
|           6|   -5.832821|   -4.949138|   -4.983733|   -5.633504|
|           7|   -5.844501|   -4.929312|   -4.988294|   -5.708293|
|           8|   -5.845068|   -4.913238|   -4.846821|   -5.768744|
|           9|   -5.784494|   -4.903487|   -4.663170|   -5.806813|
|          10|   -5.702767|   -4.898167|   -4.510859|   -5.819157|
|          11|   -5.667781|   -4.894681|   -4.418848|   -5.813348|
|          12|   -5.687637|   -4.891162|   -4.406950|   -5.798876|
|          13|   -5.737380|   -4.885534|   -4.441965|   -5.787600|
|          14|   -5.796710|   -4.875074|   -4.500606|   -5.782364|
|          15|   -5.849429|   -4.858408|   -4.563521|   -5.781928|
|          16|   -5.887923|   -4.837287|   -4.613792|   -5.783131|
|          17|   -5.911719|   -4.814996|   -4.638046|   -5.783770|
|          18|   -5.923275|   -4.793922|   -4.633907|   -5.782469|
|          19|   -5.927053|   -4.774838|   -4.612818|   -5.779287|
|          20|   -5.928900|   -4.757496|   -4.589811|   -5.774790|
|          21|   -5.933557|   -4.741386|   -4.574341|   -5.769468|
|          22|   -5.942855|   -4.726082|   -4.569109|   -5.763848|
|          23|   -5.955969|   -4.711296|   -4.572630|   -5.758465|
|          24|   -5.970790|   -4.696849|   -4.581494|   -5.753686|
|          25|   -5.985249|   -4.682699|   -4.591991|   -5.749647|
|          26|   -5.998043|   -4.668976|   -4.601149|   -5.746253|
|          27|   -6.008724|   -4.655946|   -4.607421|   -5.743325|
|          28|   -6.017459|   -4.643882|   -4.610717|   -5.740568|
|          29|   -6.024737|   -4.632953|   -4.611913|   -5.737761|
|          30|   -6.031127|   -4.623153|   -4.612279|   -5.734646|
|          31|   -6.037126|   -4.614322|   -4.612833|   -5.731383|
|          32|   -6.043050|   -4.606208|   -4.614106|   -5.728060|
|          33|   -6.049029|   -4.598549|   -4.616129|   -5.724588|
|          34|   -6.055053|   -4.591144|   -4.618552|   -5.721070|
|          35|   -6.061057|   -4.583887|   -4.620947|   -5.717457|
|          36|   -6.066981|   -4.576754|   -4.622872|   -5.713823|
|          37|   -6.072799|   -4.569771|   -4.624008|   -5.710259|
|          38|   -6.078512|   -4.562972|   -4.624219|   -5.706672|
|          39|   -6.084136|   -4.556346|   -4.623399|   -5.702913|
|          40|   -6.089687|   -4.549808|   -4.621513|   -5.698897|
|          41|   -6.095171|   -4.543211|   -4.618513|   -5.694503|
|          42|   -6.100550|   -4.536529|   -4.614404|   -5.689611|
|          43|   -6.105727|   -4.529881|   -4.609385|   -5.684147|
|          44|   -6.110617|   -4.523384|   -4.603675|   -5.678132|
|          45|   -6.115225|   -4.517256|   -4.597570|   -5.671491|
|          46|   -6.119535|   -4.512275|   -4.591978|   -5.664545|
|          47|   -6.123473|   -4.509363|   -4.587461|   -5.657539|
|          48|   -6.127016|   -4.508298|   -4.584491|   -5.650666|
|          49|   -6.130230|   -4.508130|   -4.583085|   -5.644269|
|          50|   -6.133199|   -4.508154|   -4.582659|   -5.638513|
|          51|   -6.135976|   -4.508169|   -4.582655|   -5.633487|
|          52|   -6.138584|   -4.508101|   -4.582867|   -5.629097|
|          53|   -6.141071|   -4.507840|   -4.583218|   -5.625027|
|          54|   -6.143474|   -4.507226|   -4.583574|   -5.621228|
|          55|   -6.145807|   -4.506171|   -4.582181|   -5.617868|
|          56|   -6.148289|   -4.504852|   -4.579342|   -5.614875|
|          57|   -6.150993|   -4.503446|   -4.576612|   -5.612168|
|          58|   -6.153675|   -4.501894|   -4.573400|   -5.609666|
|          59|   -6.156246|   -4.500080|   -4.570035|   -5.607343|
|          60|   -6.158623|   -4.497970|   -4.566868|   -5.605248|
|          61|   -6.160731|   -4.495629|   -4.563965|   -5.603510|
|          62|   -6.162535|   -4.493177|   -4.560896|   -5.602246|
|          63|   -6.164095|   -4.490691|   -4.558204|   -5.601449|
|          64|   -6.165415|   -4.488226|   -4.556141|   -5.601038|
|          65|   -6.166472|   -4.485848|   -4.554673|   -5.600970|
|          66|   -6.167288|   -4.483644|   -4.553775|   -5.601201|
|          67|   -6.167921|   -4.481643|   -4.552668|   -5.601693|
|          68|   -6.168547|   -4.479914|   -4.552044|   -5.602309|
|          69|   -6.169225|   -4.478451|   -4.551942|   -5.603026|
|          70|   -6.169983|   -4.477198|   -4.552210|   -5.603760|
|          71|   -6.170869|   -4.476068|   -4.552865|   -5.604539|
|          72|   -6.171927|   -4.474960|   -4.553488|   -5.605322|
|          73|   -6.173236|   -4.473777|   -4.554098|   -5.606109|
|          74|   -6.174852|   -4.472422|   -4.555110|   -5.606905|
|          75|   -6.176761|   -4.470787|   -4.556538|   -5.607624|
|          76|   -6.178951|   -4.468778|   -4.558495|   -5.608411|
|          77|   -6.181426|   -4.466304|   -4.561085|   -5.609197|
|          78|   -6.184214|   -4.463291|   -4.564429|   -5.610028|
|          79|   -6.187348|   -4.459705|   -4.568605|   -5.610926|
|          80|   -6.190881|   -4.455553|   -4.573589|   -5.611926|
|          81|   -6.194902|   -4.450861|   -4.579320|   -5.613017|
|          82|   -6.199444|   -4.445711|   -4.586128|   -5.614189|
|          83|   -6.204482|   -4.440279|   -4.594137|   -5.615527|
|          84|   -6.210109|   -4.434744|   -4.603116|   -5.616982|
|          85|   -6.216463|   -4.429199|   -4.613124|   -5.618505|
|          86|   -6.223532|   -4.423778|   -4.624131|   -5.620202|
|          87|   -6.231535|   -4.418475|   -4.636120|   -5.622032|
|          88|   -6.240079|   -4.413559|   -4.648987|   -5.623986|
|          89|   -6.249327|   -4.409212|   -4.662625|   -5.626087|
|          90|   -6.259104|   -4.405642|   -4.676945|   -5.628348|
|          91|   -6.269872|   -4.402719|   -4.691836|   -5.630800|
|          92|   -6.281253|   -4.400474|   -4.707106|   -5.633441|
|          93|   -6.293179|   -4.398927|   -4.722735|   -5.636223|
|          94|   -6.305615|   -4.398054|   -4.738438|   -5.639086|
|          95|   -6.318328|   -4.397837|   -4.753985|   -5.642001|
|          96|   -6.331258|   -4.398240|   -4.769038|   -5.644914|
|          97|   -6.344232|   -4.399113|   -4.783428|   -5.647743|
|          98|   -6.356786|   -4.400471|   -4.796790|   -5.650444|
|          99|   -6.368807|   -4.402369|   -4.808838|   -5.652960|
|         100|   -6.379968|   -4.404826|   -4.819449|   -5.655235|
|         101|   -6.390483|   -4.407654|   -4.828470|   -5.657254|
|         102|   -6.400968|   -4.410786|   -4.835313|   -5.659053|
|         103|   -6.413443|   -4.413977|   -4.839004|   -5.660689|
|         104|   -6.424346|   -4.417311|   -4.840954|   -5.662078|
|         105|   -6.433870|   -4.420770|   -4.841376|   -5.663245|
|         106|   -6.441757|   -4.424339|   -4.840052|   -5.664185|
|         107|   -6.447891|   -4.427981|   -4.836771|   -5.664971|
|         108|   -6.452083|   -4.431706|   -4.831993|   -5.665621|
|         109|   -6.454531|   -4.435498|   -4.826017|   -5.666143|
|         110|   -6.455369|   -4.439369|   -4.819101|   -5.666671|
|         111|   -6.454832|   -4.443329|   -4.811493|   -5.667185|
|         112|   -6.453105|   -4.447401|   -4.803509|   -5.667624|
|         113|   -6.450361|   -4.451637|   -4.795296|   -5.668004|
|         114|   -6.446795|   -4.456034|   -4.787196|   -5.668382|
|         115|   -6.442554|   -4.460596|   -4.779255|   -5.668777|
|         116|   -6.437837|   -4.465299|   -4.771568|   -5.669227|
|         117|   -6.432728|   -4.470137|   -4.764147|   -5.669623|
|         118|   -6.427330|   -4.475084|   -4.757069|   -5.669991|
|         119|   -6.421712|   -4.480128|   -4.750351|   -5.670375|
|         120|   -6.415970|   -4.485222|   -4.743889|   -5.670665|
|         121|   -6.410125|   -4.490337|   -4.737616|   -5.670900|
|         122|   -6.404192|   -4.495466|   -4.731498|   -5.671037|
|         123|   -6.398229|   -4.500610|   -4.725478|   -5.671013|
|         124|   -6.392305|   -4.505739|   -4.719529|   -5.670920|
|         125|   -6.386429|   -4.510830|   -4.713617|   -5.670767|
|         126|   -6.380642|   -4.515850|   -4.707711|   -5.670442|
|         127|   -6.374971|   -4.520768|   -4.701851|   -5.669949|
|         128|   -6.369437|   -4.525582|   -4.696033|   -5.669544|
|         129|   -6.364068|   -4.530285|   -4.690255|   -5.669151|
|         130|   -6.358880|   -4.534878|   -4.684529|   -5.668606|
|         131|   -6.353883|   -4.539378|   -4.678863|   -5.667872|
|         132|   -6.349090|   -4.543800|   -4.673263|   -5.666946|
|         133|   -6.344503|   -4.548162|   -4.667735|   -5.665923|
|         134|   -6.340129|   -4.552470|   -4.662286|   -5.664829|
|         135|   -6.335966|   -4.556718|   -4.656927|   -5.663596|
|         136|   -6.332009|   -4.560900|   -4.651686|   -5.662531|
|         137|   -6.328253|   -4.564998|   -4.646580|   -5.661271|
|         138|   -6.324696|   -4.568983|   -4.641630|   -5.659974|
|         139|   -6.321333|   -4.572823|   -4.636850|   -5.658573|
|         140|   -6.318165|   -4.576475|   -4.632246|   -5.657084|
|         141|   -6.315190|   -4.579902|   -4.627820|   -5.655624|
|         142|   -6.312406|   -4.583071|   -4.623584|   -5.654054|
|         143|   -6.309811|   -4.585953|   -4.619548|   -5.652379|
|         144|   -6.307402|   -4.588529|   -4.615727|   -5.650769|
|         145|   -6.305176|   -4.590785|   -4.612134|   -5.649156|
|         146|   -6.303127|   -4.592720|   -4.608773|   -5.647512|
|         147|   -6.301246|   -4.594342|   -4.605642|   -5.645838|
|         148|   -6.299524|   -4.595666|   -4.602732|   -5.644144|
|         149|   -6.297948|   -4.596715|   -4.600035|   -5.642421|
|         150|   -6.296505|   -4.597522|   -4.597539|   -5.640783|
|         151|   -6.295176|   -4.598113|   -4.595230|   -5.639367|
|         152|   -6.293939|   -4.598514|   -4.593090|   -5.638103|
|         153|   -6.292774|   -4.598753|   -4.591102|   -5.636950|
|         154|   -6.291663|   -4.598859|   -4.589248|   -5.635927|
|         155|   -6.290591|   -4.598856|   -4.587511|   -5.635069|
|         156|   -6.289542|   -4.598758|   -4.585867|   -5.634310|
|         157|   -6.288502|   -4.598575|   -4.584298|   -5.633669|
|         158|   -6.287462|   -4.598313|   -4.582783|   -5.633119|
|         159|   -6.286418|   -4.597976|   -4.581309|   -5.632832|
|         160|   -6.285369|   -4.597574|   -4.579862|   -5.633041|
|         161|   -6.284321|   -4.597116|   -4.578436|   -5.633325|
|         162|   -6.283287|   -4.596610|   -4.577023|   -5.633625|
|         163|   -6.282282|   -4.596058|   -4.575622|   -5.633939|
|         164|   -6.281327|   -4.595458|   -4.574231|   -5.634353|
|         165|   -6.280445|   -4.594802|   -4.572858|   -5.634790|
|         166|   -6.279660|   -4.594080|   -4.571510|   -5.635232|
|         167|   -6.278997|   -4.593286|   -4.570197|   -5.635689|
|         168|   -6.278484|   -4.592416|   -4.568932|   -5.636198|
|         169|   -6.278143|   -4.591464|   -4.567718|   -5.636689|
|         170|   -6.277993|   -4.590420|   -4.566561|   -5.637121|
|         171|   -6.278053|   -4.589272|   -4.565461|   -5.637503|
|         172|   -6.278334|   -4.588012|   -4.564417|   -5.637847|
|         173|   -6.278847|   -4.586639|   -4.563428|   -5.638169|
|         174|   -6.279592|   -4.585156|   -4.562488|   -5.638475|
|         175|   -6.280570|   -4.583569|   -4.561594|   -5.638759|
|         176|   -6.281772|   -4.581890|   -4.560735|   -5.639045|
|         177|   -6.283181|   -4.580129|   -4.559893|   -5.639333|
|         178|   -6.284778|   -4.578308|   -4.559049|   -5.639681|
|         179|   -6.286539|   -4.576446|   -4.558187|   -5.640032|
|         180|   -6.288437|   -4.574570|   -4.557286|   -5.640359|
|         181|   -6.290440|   -4.572712|   -4.556319|   -5.640709|
|         182|   -6.292513|   -4.570906|   -4.555264|   -5.641098|
|         183|   -6.294614|   -4.569187|   -4.554099|   -5.641559|
|         184|   -6.296703|   -4.567586|   -4.552794|   -5.642090|
|         185|   -6.298738|   -4.566137|   -4.551324|   -5.642679|
|         186|   -6.300681|   -4.564870|   -4.549664|   -5.643320|
|         187|   -6.302491|   -4.563810|   -4.547794|   -5.644003|
|         188|   -6.304136|   -4.562979|   -4.545696|   -5.644729|
|         189|   -6.305585|   -4.562392|   -4.543357|   -5.645509|
|         190|   -6.306815|   -4.562063|   -4.540770|   -5.646333|
|         191|   -6.307809|   -4.561995|   -4.537935|   -5.647236|
|         192|   -6.308560|   -4.562188|   -4.534859|   -5.648212|
|         193|   -6.309065|   -4.562632|   -4.531556|   -5.649241|
|         194|   -6.309332|   -4.563314|   -4.528046|   -5.650296|
|         195|   -6.309377|   -4.564214|   -4.524355|   -5.651387|
|         196|   -6.309221|   -4.565298|   -4.520515|   -5.652641|
|         197|   -6.308892|   -4.566528|   -4.516561|   -5.653995|
|         198|   -6.308423|   -4.567856|   -4.512530|   -5.655423|
|         199|   -6.307851|   -4.569232|   -4.508464|   -5.656863|
|         200|   -6.307219|   -4.570597|   -4.504405|   -5.658294|
|         201|   -6.306568|   -4.571887|   -4.500398|   -5.659728|
|         202|   -6.305944|   -4.573039|   -4.496485|   -5.661156|
|         203|   -6.305391|   -4.573984|   -4.492712|   -5.662559|
|         204|   -6.304951|   -4.574656|   -4.489119|   -5.663894|
|         205|   -6.304666|   -4.574992|   -4.485746|   -5.665182|
|         206|   -6.304576|   -4.574932|   -4.482631|   -5.666426|
|         207|   -6.304717|   -4.574421|   -4.479809|   -5.667740|
|         208|   -6.305122|   -4.573414|   -4.477313|   -5.669051|
|         209|   -6.305821|   -4.571872|   -4.475171|   -5.670303|
|         210|   -6.306840|   -4.569770|   -4.473410|   -5.671498|
|         211|   -6.308202|   -4.567093|   -4.472007|   -5.672666|
|         212|   -6.309927|   -4.563833|   -4.471021|   -5.673835|
|         213|   -6.312031|   -4.559996|   -4.470474|   -5.674992|
|         214|   -6.314528|   -4.555601|   -4.470382|   -5.676204|
|         215|   -6.317425|   -4.550677|   -4.470750|   -5.677436|
|         216|   -6.320729|   -4.545263|   -4.471581|   -5.678614|
|         217|   -6.324444|   -4.539402|   -4.472877|   -5.679751|
|         218|   -6.328570|   -4.533144|   -4.474637|   -5.680934|
|         219|   -6.333107|   -4.526542|   -4.476859|   -5.682055|
|         220|   -6.338053|   -4.519651|   -4.479538|   -5.683146|
|         221|   -6.343401|   -4.512524|   -4.482667|   -5.684198|
|         222|   -6.349146|   -4.505215|   -4.486242|   -5.685287|
|         223|   -6.355280|   -4.497774|   -4.490250|   -5.686410|
|         224|   -6.361792|   -4.490249|   -4.494680|   -5.687514|
|         225|   -6.368673|   -4.482683|   -4.499517|   -5.688720|
|         226|   -6.375909|   -4.475118|   -4.504741|   -5.689899|
|         227|   -6.383486|   -4.467582|   -4.510328|   -5.691123|
|         228|   -6.391391|   -4.460110|   -4.516263|   -5.692317|
|         229|   -6.399606|   -4.452726|   -4.522520|   -5.693496|
|         230|   -6.408111|   -4.445445|   -4.529065|   -5.694696|
|         231|   -6.416886|   -4.438280|   -4.535859|   -5.695900|
|         232|   -6.425909|   -4.431240|   -4.542867|   -5.697262|
|         233|   -6.435158|   -4.424331|   -4.550048|   -5.698715|
|         234|   -6.444607|   -4.417563|   -4.557350|   -5.700253|
|         235|   -6.454227|   -4.410936|   -4.564723|   -5.701874|
|         236|   -6.463989|   -4.404461|   -4.571879|   -5.703611|
|         237|   -6.473840|   -4.398148|   -4.578648|   -5.705378|
|         238|   -6.483755|   -4.391988|   -4.585264|   -5.707114|
|         239|   -6.493740|   -4.385975|   -4.591731|   -5.708815|
|         240|   -6.503752|   -4.380109|   -4.597980|   -5.710322|
|         241|   -6.513747|   -4.374389|   -4.603923|   -5.711632|
|         242|   -6.523681|   -4.368808|   -4.609481|   -5.712869|
|         243|   -6.533509|   -4.363368|   -4.614581|   -5.714284|
|         244|   -6.543185|   -4.358071|   -4.619144|   -5.715790|
|         245|   -6.552665|   -4.352902|   -4.623111|   -5.717476|
|         246|   -6.561907|   -4.347873|   -4.626442|   -5.719538|
|         247|   -6.570876|   -4.343002|   -4.629125|   -5.721735|
|         248|   -6.579539|   -4.338314|   -4.631174|   -5.723919|
|         249|   -6.587867|   -4.333841|   -4.632558|   -5.725911|
|         250|   -6.595831|   -4.329599|   -4.633265|   -5.727942|
|         251|   -6.603411|   -4.325599|   -4.633375|   -5.730031|
|         252|   -6.610593|   -4.321830|   -4.632924|   -5.732037|
|         253|   -6.617343|   -4.318283|   -4.631934|   -5.733813|
|         254|   -6.623631|   -4.314946|   -4.630444|   -5.735284|
|         255|   -6.629444|   -4.311827|   -4.628405|   -5.736459|
|         256|   -6.634762|   -4.308944|   -4.625938|   -5.737336|
|         257|   -6.639606|   -4.306328|   -4.623210|   -5.739180|
|         258|   -6.643984|   -4.303998|   -4.620311|   -5.741381|
|         259|   -6.647904|   -4.301993|   -4.617332|   -5.743738|
|         260|   -6.651373|   -4.300320|   -4.614360|   -5.746122|
|         261|   -6.654393|   -4.298999|   -4.611444|   -5.748612|
|         262|   -6.656972|   -4.298040|   -4.608651|   -5.751374|
|         263|   -6.659124|   -4.297447|   -4.606025|   -5.754203|
|         264|   -6.660871|   -4.297238|   -4.603598|   -5.756986|
|         265|   -6.662231|   -4.297447|   -4.601409|   -5.759769|
|         266|   -6.663201|   -4.298089|   -4.599474|   -5.762525|
|         267|   -6.663849|   -4.299177|   -4.597855|   -5.765238|
|         268|   -6.664209|   -4.300725|   -4.596569|   -5.768049|
|         269|   -6.664296|   -4.302698|   -4.595619|   -5.770987|
|         270|   -6.664102|   -4.305063|   -4.594970|   -5.773882|
|         271|   -6.663618|   -4.307785|   -4.594583|   -5.776913|
|         272|   -6.662850|   -4.310817|   -4.594411|   -5.780201|
|         273|   -6.661839|   -4.314119|   -4.594424|   -5.783562|
|         274|   -6.660611|   -4.317650|   -4.594597|   -5.786915|
|         275|   -6.659173|   -4.321371|   -4.594904|   -5.790336|
|         276|   -6.657525|   -4.325239|   -4.595325|   -5.793783|
|         277|   -6.655688|   -4.329209|   -4.595856|   -5.797217|
|         278|   -6.653692|   -4.333235|   -4.596492|   -5.800638|
|         279|   -6.651560|   -4.337262|   -4.597237|   -5.804021|
|         280|   -6.649307|   -4.341239|   -4.598080|   -5.807387|
|         281|   -6.646936|   -4.345113|   -4.599013|   -5.810743|
|         282|   -6.644446|   -4.348832|   -4.600027|   -5.814080|
|         283|   -6.641841|   -4.352356|   -4.601108|   -5.817366|
|         284|   -6.639123|   -4.355652|   -4.602260|   -5.820605|
|         285|   -6.636296|   -4.358694|   -4.603485|   -5.823795|
|         286|   -6.633367|   -4.361466|   -4.604791|   -5.826937|
|         287|   -6.630340|   -4.363961|   -4.606177|   -5.830046|
|         288|   -6.627222|   -4.366179|   -4.607639|   -5.833120|
|         289|   -6.624016|   -4.368125|   -4.609156|   -5.836166|
|         290|   -6.620724|   -4.369811|   -4.610719|   -5.839186|
|         291|   -6.617343|   -4.371255|   -4.612312|   -5.842170|
|         292|   -6.613866|   -4.372483|   -4.613928|   -5.845109|
|         293|   -6.610287|   -4.373524|   -4.615540|   -5.848011|
|         294|   -6.606596|   -4.374411|   -4.617129|   -5.850876|
|         295|   -6.602778|   -4.375173|   -4.618673|   -5.853703|
|         296|   -6.598815|   -4.375840|   -4.620137|   -5.856488|
|         297|   -6.594684|   -4.376445|   -4.621471|   -5.859228|
|         298|   -6.590357|   -4.377019|   -4.622650|   -5.861934|
|         299|   -6.585819|   -4.377591|   -4.623630|   -5.864633|
|         300|   -6.581045|   -4.378184|   -4.624390|   -5.867321|
|         301|   -6.576009|   -4.378824|   -4.624897|   -5.869983|
|         302|   -6.570696|   -4.379535|   -4.625114|   -5.872601|
|         303|   -6.565095|   -4.380338|   -4.625023|   -5.875198|
|         304|   -6.559193|   -4.381249|   -4.624612|   -5.877794|
|         305|   -6.552986|   -4.382283|   -4.623875|   -5.880362|
|         306|   -6.546478|   -4.383455|   -4.622814|   -5.882894|
|         307|   -6.539681|   -4.384774|   -4.621436|   -5.885375|
|         308|   -6.532596|   -4.386252|   -4.619749|   -5.887804|
|         309|   -6.525254|   -4.387896|   -4.617772|   -5.890171|
|         310|   -6.517672|   -4.389710|   -4.615513|   -5.892499|
|         311|   -6.509877|   -4.391699|   -4.613005|   -5.894781|
|         312|   -6.501901|   -4.393868|   -4.610250|   -5.897053|
|         313|   -6.493783|   -4.396214|   -4.607275|   -5.899297|
|         314|   -6.485564|   -4.398735|   -4.604108|   -5.901497|
|         315|   -6.477280|   -4.401427|   -4.600783|   -5.903636|
|         316|   -6.468965|   -4.404294|   -4.597330|   -5.905715|
|         317|   -6.460656|   -4.407332|   -4.593779|   -5.907750|
|         318|   -6.452378|   -4.410534|   -4.590169|   -5.909720|
|         319|   -6.444157|   -4.413896|   -4.586527|   -5.911626|
|         320|   -6.436029|   -4.417410|   -4.582894|   -5.913485|
|         321|   -6.428018|   -4.421063|   -4.579304|   -5.915293|
|         322|   -6.420153|   -4.424849|   -4.575785|   -5.917067|
|         323|   -6.412461|   -4.428760|   -4.572362|   -5.918780|
|         324|   -6.404962|   -4.432790|   -4.569051|   -5.920413|
|         325|   -6.397683|   -4.436923|   -4.565880|   -5.922000|
|         326|   -6.390637|   -4.441151|   -4.562859|   -5.923533|
|         327|   -6.383841|   -4.445458|   -4.560003|   -5.925003|
|         328|   -6.377309|   -4.449830|   -4.557327|   -5.926438|
|         329|   -6.371060|   -4.454251|   -4.554847|   -5.927822|
|         330|   -6.365103|   -4.458705|   -4.552574|   -5.929155|
|         331|   -6.359439|   -4.463175|   -4.550516|   -5.930470|
|         332|   -6.354055|   -4.467650|   -4.548664|   -5.931752|
|         333|   -6.348933|   -4.472117|   -4.547005|   -5.933009|
|         334|   -6.344061|   -4.476566|   -4.545532|   -5.934265|
|         335|   -6.339436|   -4.480990|   -4.544251|   -5.935511|
|         336|   -6.335057|   -4.485381|   -4.543162|   -5.936747|
|         337|   -6.330928|   -4.489731|   -4.542276|   -5.937985|
|         338|   -6.327051|   -4.494041|   -4.541593|   -5.939239|
|         339|   -6.323421|   -4.498302|   -4.541108|   -5.940537|
|         340|   -6.320026|   -4.502507|   -4.540809|   -5.941854|
|         341|   -6.316861|   -4.506652|   -4.540698|   -5.943190|
|         342|   -6.313920|   -4.510736|   -4.540767|   -5.944533|
|         343|   -6.311190|   -4.514770|   -4.540996|   -5.945937|
|         344|   -6.308658|   -4.518756|   -4.541367|   -5.947344|
|         345|   -6.306315|   -4.522685|   -4.541879|   -5.948775|
|         346|   -6.304156|   -4.526554|   -4.542521|   -5.950228|
|         347|   -6.302172|   -4.530346|   -4.543286|   -5.951668|
|         348|   -6.300362|   -4.534060|   -4.544169|   -5.953142|
|         349|   -6.298729|   -4.537693|   -4.545173|   -5.954660|
|         350|   -6.297270|   -4.541237|   -4.546296|   -5.956184|
|         351|   -6.295975|   -4.544689|   -4.547519|   -5.957704|
|         352|   -6.294835|   -4.548052|   -4.548828|   -5.959232|
|         353|   -6.293842|   -4.551333|   -4.550216|   -5.960764|
|         354|   -6.292989|   -4.554540|   -4.551672|   -5.962298|
|         355|   -6.292260|   -4.557675|   -4.553183|   -5.963847|
|         356|   -6.291641|   -4.560746|   -4.554735|   -5.965396|
|         357|   -6.291116|   -4.563765|   -4.556308|   -5.966946|
|         358|   -6.290672|   -4.566747|   -4.557890|   -5.968493|
|         359|   -6.290292|   -4.569685|   -4.559478|   -5.970034|
|         360|   -6.289966|   -4.572598|   -4.561060|   -5.971567|
|         361|   -6.289683|   -4.575495|   -4.562627|   -5.973077|
|         362|   -6.289434|   -4.578390|   -4.564176|   -5.974561|
|         363|   -6.289216|   -4.581303|   -4.565701|   -5.976031|
|         364|   -6.289022|   -4.584238|   -4.567204|   -5.977463|
|         365|   -6.288845|   -4.587208|   -4.568677|   -5.978846|
|         366|   -6.288680|   -4.590222|   -4.570112|   -5.980157|
|         367|   -6.288520|   -4.593288|   -4.571508|   -5.981396|
|         368|   -6.288363|   -4.596411|   -4.572864|   -5.982559|
|         369|   -6.288208|   -4.599590|   -4.574188|   -5.983632|
|         370|   -6.288058|   -4.602826|   -4.575481|   -5.984611|
|         371|   -6.287913|   -4.606110|   -4.576749|   -5.985466|
|         372|   -6.287776|   -4.609444|   -4.577995|   -5.986257|
|         373|   -6.287648|   -4.612824|   -4.579224|   -5.986887|
|         374|   -6.287534|   -4.616248|   -4.580444|   -5.987426|
|         375|   -6.287439|   -4.619704|   -4.581664|   -5.987789|
|         376|   -6.287370|   -4.623191|   -4.582891|   -5.988027|
|         377|   -6.287330|   -4.626691|   -4.584131|   -5.988110|
|         378|   -6.287320|   -4.630190|   -4.585381|   -5.988035|
|         379|   -6.287347|   -4.633667|   -4.586649|   -5.987814|
|         380|   -6.287417|   -4.637109|   -4.587935|   -5.987435|
|         381|   -6.287538|   -4.640501|   -4.589240|   -5.986892|
|         382|   -6.287717|   -4.643828|   -4.590565|   -5.986176|
|         383|   -6.287958|   -4.647067|   -4.591911|   -5.985282|
|         384|   -6.288267|   -4.650210|   -4.593278|   -5.984220|
|         385|   -6.288648|   -4.653246|   -4.594659|   -5.982998|
|         386|   -6.289101|   -4.656163|   -4.596061|   -5.981589|
|         387|   -6.289633|   -4.658941|   -4.597483|   -5.980018|
|         388|   -6.290247|   -4.661572|   -4.598926|   -5.978284|
|         389|   -6.290946|   -4.664045|   -4.600380|   -5.976322|
|         390|   -6.291729|   -4.666359|   -4.601841|   -5.974274|
|         391|   -6.292597|   -4.668495|   -4.603303|   -5.972090|
|         392|   -6.293549|   -4.670454|   -4.604766|   -5.969740|
|         393|   -6.294580|   -4.672234|   -4.606224|   -5.967297|
|         394|   -6.295686|   -4.673842|   -4.607676|   -5.964732|
|         395|   -6.296862|   -4.675270|   -4.609126|   -5.962129|
|         396|   -6.298101|   -4.676512|   -4.610583|   -5.959587|
|         397|   -6.299395|   -4.677564|   -4.612050|   -5.957042|
|         398|   -6.300740|   -4.678426|   -4.613531|   -5.954704|
|         399|   -6.302128|   -4.679100|   -4.615035|   -5.952358|
|         400|   -6.303553|   -4.679580|   -4.616564|   -5.950052|
|         401|   -6.305010|   -4.679867|   -4.618120|   -5.947576|
|         402|   -6.306495|   -4.679967|   -4.619704|   -5.945156|
|         403|   -6.308002|   -4.679887|   -4.621310|   -5.942687|
|         404|   -6.309525|   -4.679634|   -4.622935|   -5.940472|
|         405|   -6.311060|   -4.679219|   -4.624583|   -5.938179|
|         406|   -6.312605|   -4.678640|   -4.626258|   -5.935881|
|         407|   -6.314158|   -4.677905|   -4.627958|   -5.933850|
|         408|   -6.315718|   -4.677023|   -4.629683|   -5.931870|
|         409|   -6.317289|   -4.675999|   -4.631430|   -5.930119|
|         410|   -6.318876|   -4.674839|   -4.633208|   -5.928494|
|         411|   -6.320492|   -4.673557|   -4.635022|   -5.926880|
|         412|   -6.322149|   -4.672164|   -4.636881|   -5.925219|
|         413|   -6.323862|   -4.670672|   -4.638800|   -5.923543|
|         414|   -6.325649|   -4.669094|   -4.640787|   -5.921881|
|         415|   -6.327525|   -4.667436|   -4.642852|   -5.920281|
|         416|   -6.329506|   -4.665707|   -4.644994|   -5.918755|
|         417|   -6.331603|   -4.663912|   -4.647213|   -5.917237|
|         418|   -6.333823|   -4.662041|   -4.649519|   -5.915726|
|         419|   -6.336168|   -4.660096|   -4.651915|   -5.914223|
|         420|   -6.338713|   -4.658043|   -4.654095|   -5.912757|
|         421|   -6.341391|   -4.655864|   -4.656108|   -5.911421|
|         422|   -6.344167|   -4.653550|   -4.658154|   -5.910101|
|         423|   -6.347084|   -4.651102|   -4.660261|   -5.908719|
|         424|   -6.350163|   -4.648510|   -4.662437|   -5.907328|
|         425|   -6.353410|   -4.645777|   -4.664677|   -5.905940|
|         426|   -6.356829|   -4.642906|   -4.666966|   -5.904595|
|         427|   -6.360419|   -4.639910|   -4.669278|   -5.903291|
|         428|   -6.364180|   -4.636810|   -4.671599|   -5.901971|
|         429|   -6.368114|   -4.633618|   -4.673913|   -5.900609|
|         430|   -6.372221|   -4.630343|   -4.676212|   -5.899215|
|         431|   -6.376501|   -4.627005|   -4.678489|   -5.897767|
|         432|   -6.380960|   -4.623623|   -4.680740|   -5.896318|
|         433|   -6.385598|   -4.620203|   -4.682960|   -5.894867|
|         434|   -6.390414|   -4.616763|   -4.685149|   -5.893437|
|         435|   -6.395409|   -4.613311|   -4.687301|   -5.891975|
|         436|   -6.400580|   -4.609858|   -4.689417|   -5.890868|
|         437|   -6.405924|   -4.606411|   -4.691490|   -5.889706|
|         438|   -6.411437|   -4.602972|   -4.693512|   -5.888396|
|         439|   -6.417106|   -4.599544|   -4.695473|   -5.887034|
|         440|   -6.422919|   -4.596122|   -4.697366|   -5.885696|
|         441|   -6.428859|   -4.592704|   -4.699184|   -5.884326|
|         442|   -6.434909|   -4.589289|   -4.700925|   -5.883133|
|         443|   -6.441050|   -4.585872|   -4.702596|   -5.881770|
|         444|   -6.447258|   -4.582455|   -4.704202|   -5.880373|
|         445|   -6.453513|   -4.579039|   -4.705747|   -5.879030|
|         446|   -6.459798|   -4.575624|   -4.707220|   -5.878007|
|         447|   -6.466091|   -4.572217|   -4.708611|   -5.876785|
|         448|   -6.472376|   -4.568821|   -4.709914|   -5.875495|
|         449|   -6.478638|   -4.565440|   -4.711119|   -5.874198|
|         450|   -6.484868|   -4.562081|   -4.712227|   -5.872773|
|         451|   -6.491058|   -4.558755|   -4.713242|   -5.871229|
|         452|   -6.497207|   -4.555469|   -4.714168|   -5.869715|
|         453|   -6.503319|   -4.552232|   -4.715008|   -5.868127|
|         454|   -6.509403|   -4.549051|   -4.715762|   -5.866535|
|         455|   -6.515475|   -4.545935|   -4.716433|   -5.865060|
|         456|   -6.521546|   -4.542895|   -4.717015|   -5.863577|
|         457|   -6.527632|   -4.539943|   -4.717510|   -5.861998|
|         458|   -6.533751|   -4.537090|   -4.717921|   -5.860728|
|         459|   -6.539918|   -4.534350|   -4.718255|   -5.859616|
|         460|   -6.546140|   -4.531734|   -4.718515|   -5.858453|
|         461|   -6.552418|   -4.529249|   -4.718715|   -5.857343|
|         462|   -6.558744|   -4.526892|   -4.718856|   -5.856194|
|         463|   -6.565099|   -4.524658|   -4.718946|   -5.854972|
|         464|   -6.571464|   -4.522533|   -4.718982|   -5.853776|
|         465|   -6.577808|   -4.520497|   -4.718967|   -5.852575|
|         466|   -6.584106|   -4.518531|   -4.718899|   -5.851325|
|         467|   -6.590325|   -4.516618|   -4.718774|   -5.850077|
|         468|   -6.596434|   -4.514748|   -4.718591|   -5.848853|
|         469|   -6.602409|   -4.512912|   -4.718346|   -5.847585|
|         470|   -6.608232|   -4.511106|   -4.718042|   -5.846309|
|         471|   -6.613896|   -4.509332|   -4.717686|   -5.845071|
|         472|   -6.619412|   -4.507594|   -4.717280|   -5.843862|
|         473|   -6.624794|   -4.505900|   -4.716828|   -5.842652|
|         474|   -6.630064|   -4.504257|   -4.716331|   -5.841435|
|         475|   -6.635251|   -4.502671|   -4.715794|   -5.840197|
|         476|   -6.640376|   -4.501152|   -4.715213|   -5.838957|
|         477|   -6.645467|   -4.499706|   -4.714588|   -5.837692|
|         478|   -6.650536|   -4.498339|   -4.713913|   -5.836423|
|         479|   -6.655682|   -4.497044|   -4.713142|   -5.835135|
|         480|   -6.660828|   -4.495822|   -4.712303|   -5.833852|
|         481|   -6.666109|   -4.494673|   -4.711474|   -5.832559|
|         482|   -6.671601|   -4.493588|   -4.710686|   -5.831246|
|         483|   -6.677317|   -4.492563|   -4.709936|   -5.829917|
|         484|   -6.683234|   -4.491599|   -4.709208|   -5.828562|
|         485|   -6.689290|   -4.490698|   -4.708486|   -5.827195|
|         486|   -6.695406|   -4.489864|   -4.707750|   -5.825813|
|         487|   -6.701490|   -4.489098|   -4.706988|   -5.824418|
|         488|   -6.707456|   -4.488400|   -4.706196|   -5.823015|
|         489|   -6.713222|   -4.487769|   -4.705377|   -5.821608|
|         490|   -6.718738|   -4.487198|   -4.704544|   -5.820191|
|         491|   -6.723962|   -4.486684|   -4.703708|   -5.818780|
|         492|   -6.728866|   -4.486225|   -4.702875|   -5.817371|
|         493|   -6.733436|   -4.485818|   -4.702052|   -5.815973|
|         494|   -6.737670|   -4.485465|   -4.701238|   -5.814586|
|         495|   -6.741577|   -4.485162|   -4.700429|   -5.813212|
|         496|   -6.745182|   -4.484909|   -4.699624|   -5.811852|
|         497|   -6.748519|   -4.484704|   -4.698828|   -5.810511|
|         498|   -6.751607|   -4.484550|   -4.698035|   -5.809197|
|         499|   -6.754449|   -4.484447|   -4.697242|   -5.807912|
|         500|   -6.757041|   -4.484398|   -4.696449|   -5.806662|
|         501|   -6.759384|   -4.484402|   -4.695652|   -5.805449|
|         502|   -6.761462|   -4.484458|   -4.694853|   -5.804277|
|         503|   -6.763260|   -4.484565|   -4.694044|   -5.803152|
|         504|   -6.764786|   -4.484724|   -4.693241|   -5.802085|
|         505|   -6.766047|   -4.484934|   -4.692445|   -5.801085|
|         506|   -6.767046|   -4.485191|   -4.691668|   -5.800156|
|         507|   -6.767793|   -4.485497|   -4.690920|   -5.799315|
|         508|   -6.768295|   -4.485849|   -4.690196|   -5.798561|
|         509|   -6.768557|   -4.486247|   -4.689497|   -5.797898|
|         510|   -6.768593|   -4.486684|   -4.688820|   -5.797334|
|         511|   -6.768435|   -4.487158|   -4.688175|   -5.796878|
|         512|   -6.768122|   -4.487666|   -4.687564|   -5.796535|
|         513|   -6.767673|   -4.488205|   -4.686989|   -5.796315|
|         514|   -6.767117|   -4.488775|   -4.686451|   -5.796225|
|         515|   -6.766466|   -4.489373|   -4.685944|   -5.796266|
|         516|   -6.765738|   -4.489997|   -4.685469|   -5.796441|
|         517|   -6.764954|   -4.490641|   -4.685029|   -5.796756|
|         518|   -6.764153|   -4.491300|   -4.684633|   -5.797212|
|         519|   -6.763351|   -4.491968|   -4.684291|   -5.797812|
|         520|   -6.762563|   -4.492647|   -4.684001|   -5.798565|
|         521|   -6.761797|   -4.493335|   -4.683766|   -5.799469|
|         522|   -6.761056|   -4.494032|   -4.683583|   -5.800516|
|         523|   -6.760336|   -4.494737|   -4.683443|   -5.801711|
|         524|   -6.759646|   -4.495447|   -4.683348|   -5.803045|
|         525|   -6.758987|   -4.496162|   -4.683300|   -5.804513|
|         526|   -6.758356|   -4.496884|   -4.683296|   -5.806113|
|         527|   -6.757749|   -4.497613|   -4.683334|   -5.807868|
|         528|   -6.757148|   -4.498349|   -4.683403|   -5.809761|
|         529|   -6.756530|   -4.499093|   -4.683491|   -5.811771|
|         530|   -6.755887|   -4.499845|   -4.683597|   -5.813878|
|         531|   -6.755211|   -4.500603|   -4.683723|   -5.816071|
|         532|   -6.754491|   -4.501370|   -4.683864|   -5.818336|
|         533|   -6.753707|   -4.502148|   -4.684020|   -5.820657|
|         534|   -6.752839|   -4.502942|   -4.684177|   -5.823025|
|         535|   -6.751868|   -4.503753|   -4.684318|   -5.825425|
|         536|   -6.750761|   -4.504581|   -4.684450|   -5.827840|
|         537|   -6.749505|   -4.505425|   -4.684573|   -5.830238|
|         538|   -6.748085|   -4.506285|   -4.684685|   -5.832590|
|         539|   -6.746494|   -4.507162|   -4.684784|   -5.834878|
|         540|   -6.744727|   -4.508057|   -4.684875|   -5.837081|
|         541|   -6.742779|   -4.508976|   -4.684954|   -5.839204|
|         542|   -6.740644|   -4.509918|   -4.685014|   -5.841221|
|         543|   -6.738312|   -4.510884|   -4.685050|   -5.843110|
|         544|   -6.735787|   -4.511877|   -4.685062|   -5.844857|
|         545|   -6.733075|   -4.512897|   -4.685051|   -5.846447|
|         546|   -6.730186|   -4.513943|   -4.685016|   -5.847894|
|         547|   -6.727130|   -4.515016|   -4.684957|   -5.849175|
|         548|   -6.723912|   -4.516111|   -4.684869|   -5.850284|
|         549|   -6.720550|   -4.517230|   -4.684750|   -5.851240|
|         550|   -6.717063|   -4.518372|   -4.684605|   -5.852047|
|         551|   -6.713470|   -4.519537|   -4.684444|   -5.852704|
|         552|   -6.709794|   -4.520722|   -4.684272|   -5.853220|
|         553|   -6.706052|   -4.521923|   -4.684090|   -5.853605|
|         554|   -6.702258|   -4.523140|   -4.683900|   -5.853865|
|         555|   -6.698427|   -4.524372|   -4.683698|   -5.854017|
|         556|   -6.694569|   -4.525614|   -4.683482|   -5.854088|
|         557|   -6.690689|   -4.526859|   -4.683251|   -5.854087|
|         558|   -6.686802|   -4.528104|   -4.683014|   -5.854013|
|         559|   -6.682924|   -4.529346|   -4.682780|   -5.853873|
|         560|   -6.679070|   -4.530583|   -4.682558|   -5.853697|
|         561|   -6.675250|   -4.531812|   -4.682347|   -5.853503|
|         562|   -6.671469|   -4.533028|   -4.682148|   -5.853300|
|         563|   -6.667730|   -4.534225|   -4.681955|   -5.853084|
|         564|   -6.664043|   -4.535400|   -4.681775|   -5.852862|
|         565|   -6.660420|   -4.536553|   -4.681624|   -5.852648|
|         566|   -6.656875|   -4.537678|   -4.681507|   -5.852478|
|         567|   -6.653412|   -4.538775|   -4.681425|   -5.852329|
|         568|   -6.650038|   -4.539847|   -4.681375|   -5.852191|
|         569|   -6.646753|   -4.540888|   -4.681347|   -5.852051|
|         570|   -6.643555|   -4.541900|   -4.681337|   -5.851923|
|         571|   -6.640439|   -4.542878|   -4.681337|   -5.851800|
|         572|   -6.637408|   -4.543817|   -4.681353|   -5.851684|
|         573|   -6.634468|   -4.544718|   -4.681390|   -5.851568|
|         574|   -6.631625|   -4.545580|   -4.681450|   -5.851459|
|         575|   -6.628881|   -4.546402|   -4.681532|   -5.851362|
|         576|   -6.626234|   -4.547179|   -4.681622|   -5.851305|
|         577|   -6.623692|   -4.547908|   -4.681728|   -5.851257|
|         578|   -6.621264|   -4.548592|   -4.681857|   -5.851214|
|         579|   -6.618955|   -4.549231|   -4.682011|   -5.851173|
|         580|   -6.616771|   -4.549823|   -4.682189|   -5.851134|
|         581|   -6.614712|   -4.550369|   -4.682391|   -5.851105|
|         582|   -6.612780|   -4.550865|   -4.682614|   -5.851087|
|         583|   -6.610976|   -4.551311|   -4.682853|   -5.851077|
|         584|   -6.609296|   -4.551707|   -4.683104|   -5.851069|
|         585|   -6.607741|   -4.552056|   -4.683364|   -5.851075|
|         586|   -6.606310|   -4.552357|   -4.683633|   -5.851090|
|         587|   -6.605005|   -4.552610|   -4.683911|   -5.851122|
|         588|   -6.603823|   -4.552812|   -4.684193|   -5.851170|
|         589|   -6.602766|   -4.552958|   -4.684478|   -5.851229|
|         590|   -6.601833|   -4.553046|   -4.684762|   -5.851299|
|         591|   -6.601029|   -4.553078|   -4.685052|   -5.851381|
|         592|   -6.600355|   -4.553057|   -4.685356|   -5.851479|
|         593|   -6.599812|   -4.552987|   -4.685670|   -5.851607|
|         594|   -6.599399|   -4.552869|   -4.685996|   -5.851757|
|         595|   -6.599112|   -4.552704|   -4.686330|   -5.851941|
|         596|   -6.598949|   -4.552496|   -4.686663|   -5.852142|
|         597|   -6.598899|   -4.552244|   -4.686977|   -5.852355|
|         598|   -6.598955|   -4.551947|   -4.687266|   -5.852592|
|         599|   -6.599115|   -4.551609|   -4.687542|   -5.852847|
|         600|   -6.599376|   -4.551231|   -4.687805|   -5.853114|
|         601|   -6.599735|   -4.550815|   -4.688053|   -5.853402|
|         602|   -6.600181|   -4.550364|   -4.688275|   -5.853738|
|         603|   -6.600711|   -4.549880|   -4.688471|   -5.854112|
|         604|   -6.601317|   -4.549372|   -4.688650|   -5.854505|
|         605|   -6.601997|   -4.548842|   -4.688814|   -5.854907|
|         606|   -6.602746|   -4.548291|   -4.688959|   -5.855325|
|         607|   -6.603557|   -4.547718|   -4.689091|   -5.855748|
|         608|   -6.604423|   -4.547123|   -4.689207|   -5.856177|
|         609|   -6.605341|   -4.546511|   -4.689306|   -5.856622|
|         610|   -6.606301|   -4.545893|   -4.689386|   -5.857079|
|         611|   -6.607297|   -4.545266|   -4.689441|   -5.857533|
|         612|   -6.608325|   -4.544631|   -4.689469|   -5.858008|
|         613|   -6.609379|   -4.543988|   -4.689470|   -5.858510|
|         614|   -6.610459|   -4.543337|   -4.689450|   -5.859024|
|         615|   -6.611560|   -4.542686|   -4.689406|   -5.859553|
|         616|   -6.612682|   -4.542034|   -4.689340|   -5.860087|
|         617|   -6.613822|   -4.541387|   -4.689259|   -5.860620|
|         618|   -6.614983|   -4.540746|   -4.689176|   -5.861158|
|         619|   -6.616168|   -4.540110|   -4.689103|   -5.861704|
|         620|   -6.617381|   -4.539476|   -4.689047|   -5.862274|
|         621|   -6.618627|   -4.538840|   -4.689013|   -5.862878|
|         622|   -6.619914|   -4.538218|   -4.689003|   -5.863476|
|         623|   -6.621247|   -4.537603|   -4.689022|   -5.864057|
|         624|   -6.622633|   -4.536996|   -4.689068|   -5.864623|
|         625|   -6.624076|   -4.536391|   -4.689140|   -5.865172|
|         626|   -6.625580|   -4.535782|   -4.689240|   -5.865718|
|         627|   -6.627149|   -4.535189|   -4.689385|   -5.866318|
|         628|   -6.628796|   -4.534599|   -4.689583|   -5.866929|
|         629|   -6.630525|   -4.534031|   -4.689840|   -5.867538|
|         630|   -6.632345|   -4.533480|   -4.690160|   -5.868176|
|         631|   -6.634256|   -4.532952|   -4.690538|   -5.868825|
|         632|   -6.636262|   -4.532446|   -4.690971|   -5.869548|
|         633|   -6.638364|   -4.531956|   -4.691465|   -5.870282|
|         634|   -6.640571|   -4.531479|   -4.692030|   -5.870990|
|         635|   -6.642891|   -4.531016|   -4.692668|   -5.871656|
|         636|   -6.645329|   -4.530569|   -4.693379|   -5.872287|
|         637|   -6.647890|   -4.530138|   -4.694162|   -5.872882|
|         638|   -6.650577|   -4.529725|   -4.695014|   -5.873429|
|         639|   -6.653392|   -4.529333|   -4.695926|   -5.873967|
|         640|   -6.656335|   -4.528964|   -4.696888|   -5.874503|
|         641|   -6.659398|   -4.528617|   -4.697894|   -5.875023|
|         642|   -6.662578|   -4.528293|   -4.698943|   -5.875494|
|         643|   -6.665872|   -4.527994|   -4.700033|   -5.875907|
|         644|   -6.669278|   -4.527717|   -4.701164|   -5.876324|
|         645|   -6.672788|   -4.527458|   -4.702335|   -5.876732|
|         646|   -6.676390|   -4.527212|   -4.703529|   -5.877106|
|         647|   -6.680072|   -4.526976|   -4.704725|   -5.877442|
|         648|   -6.683831|   -4.526749|   -4.705927|   -5.877746|
|         649|   -6.687670|   -4.526530|   -4.707139|   -5.878014|
|         650|   -6.691589|   -4.526316|   -4.708362|   -5.878247|
|         651|   -6.695589|   -4.526109|   -4.709594|   -5.878448|
|         652|   -6.699666|   -4.525910|   -4.710827|   -5.878627|
|         653|   -6.703817|   -4.525720|   -4.712051|   -5.878798|
|         654|   -6.708040|   -4.525546|   -4.713256|   -5.878978|
|         655|   -6.712327|   -4.525390|   -4.714425|   -5.879171|
|         656|   -6.716664|   -4.525251|   -4.715558|   -5.879415|
|         657|   -6.721041|   -4.525125|   -4.716648|   -5.879686|
|         658|   -6.725452|   -4.525015|   -4.717689|   -5.879951|
|         659|   -6.729897|   -4.524923|   -4.718678|   -5.880223|
|         660|   -6.734372|   -4.524844|   -4.719621|   -5.880489|
|         661|   -6.738871|   -4.524772|   -4.720528|   -5.880724|
|         662|   -6.743395|   -4.524703|   -4.721402|   -5.880925|
|         663|   -6.747951|   -4.524637|   -4.722253|   -5.881096|
|         664|   -6.752549|   -4.524574|   -4.723087|   -5.881300|
|         665|   -6.757201|   -4.524514|   -4.723907|   -5.881548|
|         666|   -6.761912|   -4.524458|   -4.724714|   -5.881794|
|         667|   -6.766689|   -4.524409|   -4.725506|   -5.882025|
|         668|   -6.771539|   -4.524369|   -4.726279|   -5.882247|
|         669|   -6.776469|   -4.524343|   -4.727029|   -5.882472|
|         670|   -6.781485|   -4.524332|   -4.727753|   -5.882702|
|         671|   -6.786590|   -4.524335|   -4.728450|   -5.882938|
|         672|   -6.791789|   -4.524344|   -4.729146|   -5.883190|
|         673|   -6.797085|   -4.524356|   -4.729848|   -5.883450|
|         674|   -6.802490|   -4.524372|   -4.730559|   -5.883700|
|         675|   -6.808017|   -4.524390|   -4.731286|   -5.883938|
|         676|   -6.813683|   -4.524412|   -4.732033|   -5.884161|
|         677|   -6.819502|   -4.524439|   -4.732799|   -5.884436|
|         678|   -6.825486|   -4.524473|   -4.733582|   -5.884772|
|         679|   -6.831641|   -4.524507|   -4.734401|   -5.885131|
|         680|   -6.837977|   -4.524537|   -4.735261|   -5.885467|
|         681|   -6.844505|   -4.524565|   -4.736153|   -5.885773|
|         682|   -6.851235|   -4.524592|   -4.737083|   -5.886070|
|         683|   -6.858176|   -4.524623|   -4.738051|   -5.886368|
|         684|   -6.865337|   -4.524657|   -4.739052|   -5.886670|
|         685|   -6.872727|   -4.524694|   -4.740087|   -5.886982|
|         686|   -6.880349|   -4.524734|   -4.741159|   -5.887305|
|         687|   -6.888210|   -4.524776|   -4.742271|   -5.887624|
|         688|   -6.896320|   -4.524820|   -4.743410|   -5.887933|
|         689|   -6.904681|   -4.524867|   -4.744580|   -5.888250|
|         690|   -6.913293|   -4.524918|   -4.745788|   -5.888589|
|         691|   -6.922156|   -4.524975|   -4.747025|   -5.888952|
|         692|   -6.931266|   -4.525041|   -4.748283|   -5.889338|
|         693|   -6.940618|   -4.525119|   -4.749551|   -5.889733|
|         694|   -6.950203|   -4.525208|   -4.750840|   -5.890159|
|         695|   -6.960009|   -4.525313|   -4.752153|   -5.890618|
|         696|   -6.970010|   -4.525430|   -4.753461|   -5.891073|
|         697|   -6.980202|   -4.525562|   -4.754746|   -5.891528|
|         698|   -6.990557|   -4.525714|   -4.756016|   -5.892006|
|         699|   -7.001037|   -4.525887|   -4.757275|   -5.892511|
|         700|   -7.011605|   -4.526079|   -4.758510|   -5.893028|
|         701|   -7.022221|   -4.526291|   -4.759731|   -5.893578|
|         702|   -7.032828|   -4.526544|   -4.760935|   -5.894189|
|         703|   -7.043373|   -4.526825|   -4.762088|   -5.894785|
|         704|   -7.053859|   -4.527131|   -4.763192|   -5.895365|
|         705|   -7.064135|   -4.527468|   -4.764232|   -5.895949|
|         706|   -7.074144|   -4.527841|   -4.765245|   -5.896568|
|         707|   -7.083813|   -4.528259|   -4.766235|   -5.897225|
|         708|   -7.093020|   -4.528715|   -4.767200|   -5.897921|
|         709|   -7.101660|   -4.529208|   -4.768108|   -5.898635|
|         710|   -7.109657|   -4.529743|   -4.768939|   -5.899355|
|         711|   -7.116904|   -4.530328|   -4.769701|   -5.900118|
|         712|   -7.123300|   -4.530962|   -4.770401|   -5.900927|
|         713|   -7.128758|   -4.531648|   -4.771044|   -5.901772|
|         714|   -7.133208|   -4.532389|   -4.771626|   -5.902653|
|         715|   -7.136598|   -4.533188|   -4.772139|   -5.903564|
|         716|   -7.138895|   -4.534044|   -4.772582|   -5.904485|
|         717|   -7.140078|   -4.534959|   -4.772970|   -5.905450|
|         718|   -7.140164|   -4.535935|   -4.773304|   -5.906468|
|         719|   -7.139183|   -4.536979|   -4.773595|   -5.907519|
|         720|   -7.137160|   -4.538084|   -4.773834|   -5.908580|
|         721|   -7.134194|   -4.539247|   -4.773986|   -5.909655|
|         722|   -7.130363|   -4.540473|   -4.774054|   -5.910760|
|         723|   -7.125745|   -4.541760|   -4.774057|   -5.911889|
|         724|   -7.120430|   -4.543102|   -4.774028|   -5.913112|
|         725|   -7.114509|   -4.544497|   -4.773961|   -5.914452|
|         726|   -7.108104|   -4.545950|   -4.773865|   -5.915864|
|         727|   -7.101296|   -4.547462|   -4.773756|   -5.917323|
|         728|   -7.094182|   -4.549025|   -4.773621|   -5.918802|
|         729|   -7.086861|   -4.550636|   -4.773432|   -5.920291|
|         730|   -7.079400|   -4.552296|   -4.773186|   -5.921798|
|         731|   -7.071861|   -4.554004|   -4.772888|   -5.923330|
|         732|   -7.064286|   -4.555757|   -4.772559|   -5.924897|
|         733|   -7.056717|   -4.557544|   -4.772215|   -5.926499|
|         734|   -7.049185|   -4.559363|   -4.771859|   -5.928141|
|         735|   -7.041734|   -4.561215|   -4.771495|   -5.929825|
|         736|   -7.034377|   -4.563102|   -4.771134|   -5.931523|
|         737|   -7.027139|   -4.565016|   -4.770759|   -5.933248|
|         738|   -7.020046|   -4.566951|   -4.770341|   -5.934995|
|         739|   -7.013101|   -4.568910|   -4.769876|   -5.936757|
|         740|   -7.006303|   -4.570890|   -4.769388|   -5.938542|
|         741|   -6.999659|   -4.572884|   -4.768887|   -5.940371|
|         742|   -6.993158|   -4.574887|   -4.768346|   -5.942234|
|         743|   -6.986789|   -4.576895|   -4.767759|   -5.944109|
|         744|   -6.980555|   -4.578909|   -4.767130|   -5.946012|
|         745|   -6.974446|   -4.580928|   -4.766483|   -5.947951|
|         746|   -6.968457|   -4.582949|   -4.765827|   -5.949925|
|         747|   -6.962575|   -4.584975|   -4.765162|   -5.951946|
|         748|   -6.956793|   -4.587005|   -4.764487|   -5.954026|
|         749|   -6.951104|   -4.589039|   -4.763799|   -5.956161|
|         750|   -6.945501|   -4.591078|   -4.763091|   -5.958333|
|         751|   -6.939971|   -4.593135|   -4.762361|   -5.960557|
|         752|   -6.934507|   -4.595209|   -4.761634|   -5.962837|
|         753|   -6.929107|   -4.597291|   -4.760906|   -5.965160|
|         754|   -6.923759|   -4.599381|   -4.760155|   -5.967510|
|         755|   -6.918446|   -4.601485|   -4.759361|   -5.969907|
|         756|   -6.913157|   -4.603603|   -4.758539|   -5.972358|
|         757|   -6.907899|   -4.605740|   -4.757698|   -5.974847|
|         758|   -6.902672|   -4.607897|   -4.756850|   -5.977380|
|         759|   -6.897472|   -4.610063|   -4.755994|   -5.979979|
|         760|   -6.892312|   -4.612238|   -4.755117|   -5.982630|
|         761|   -6.887185|   -4.614428|   -4.754204|   -5.985326|
|         762|   -6.882095|   -4.616644|   -4.753268|   -5.988096|
|         763|   -6.877048|   -4.618873|   -4.752336|   -5.990936|
|         764|   -6.872044|   -4.621119|   -4.751389|   -5.993823|
|         765|   -6.867082|   -4.623386|   -4.750416|   -5.996787|
|         766|   -6.862167|   -4.625673|   -4.749453|   -5.999812|
|         767|   -6.857300|   -4.627981|   -4.748497|   -6.002894|
|         768|   -6.852485|   -4.630313|   -4.747539|   -6.006044|
|         769|   -6.847729|   -4.632665|   -4.746562|   -6.009237|
|         770|   -6.843030|   -4.635043|   -4.745592|   -6.012482|
|         771|   -6.838391|   -4.637444|   -4.744646|   -6.015783|
|         772|   -6.833818|   -4.639863|   -4.743690|   -6.019132|
|         773|   -6.829315|   -4.642295|   -4.742689|   -6.022536|
|         774|   -6.824879|   -4.644761|   -4.741720|   -6.026008|
|         775|   -6.820520|   -4.647248|   -4.740739|   -6.029542|
|         776|   -6.816232|   -4.649742|   -4.739711|   -6.033106|
|         777|   -6.812017|   -4.652263|   -4.738703|   -6.036722|
|         778|   -6.807889|   -4.654815|   -4.737679|   -6.040392|
|         779|   -6.803840|   -4.657372|   -4.736595|   -6.044089|
|         780|   -6.799857|   -4.659957|   -4.735555|   -6.047835|
|         781|   -6.795963|   -4.662566|   -4.734494|   -6.051618|
|         782|   -6.792147|   -4.665186|   -4.733399|   -6.055424|
|         783|   -6.788398|   -4.667829|   -4.732336|   -6.059273|
|         784|   -6.784733|   -4.670489|   -4.731246|   -6.063148|
|         785|   -6.781145|   -4.673160|   -4.730164|   -6.067046|
|         786|   -6.777630|   -4.675856|   -4.729097|   -6.070964|
|         787|   -6.774188|   -4.678567|   -4.728008|   -6.074892|
|         788|   -6.770809|   -4.681294|   -4.726945|   -6.078828|
|         789|   -6.767498|   -4.684051|   -4.725881|   -6.082768|
|         790|   -6.764239|   -4.686819|   -4.724829|   -6.086702|
|         791|   -6.761035|   -4.689617|   -4.723791|   -6.090629|
|         792|   -6.757886|   -4.692435|   -4.722754|   -6.094546|
|         793|   -6.754785|   -4.695276|   -4.721754|   -6.098453|
|         794|   -6.751735|   -4.698137|   -4.720779|   -6.102339|
|         795|   -6.748733|   -4.701006|   -4.719840|   -6.106196|
|         796|   -6.745774|   -4.703894|   -4.718960|   -6.110030|
|         797|   -6.742864|   -4.706798|   -4.718105|   -6.113833|
|         798|   -6.740002|   -4.709723|   -4.717303|   -6.117610|
|         799|   -6.737191|   -4.712673|   -4.716570|   -6.121389|
|         800|   -6.734431|   -4.715640|   -4.715872|   -6.125140|
|         801|   -6.731716|   -4.718633|   -4.715231|   -6.128858|
|         802|   -6.729049|   -4.721651|   -4.714655|   -6.132538|
|         803|   -6.726428|   -4.724693|   -4.714142|   -6.136189|
|         804|   -6.723852|   -4.727766|   -4.713708|   -6.139808|
|         805|   -6.721318|   -4.730872|   -4.713341|   -6.143395|
|         806|   -6.718823|   -4.734006|   -4.713040|   -6.146953|
|         807|   -6.716368|   -4.737188|   -4.712813|   -6.150482|
|         808|   -6.713950|   -4.740402|   -4.712655|   -6.153979|
|         809|   -6.711573|   -4.743645|   -4.712556|   -6.157446|
|         810|   -6.709229|   -4.746928|   -4.712549|   -6.160891|
|         811|   -6.706927|   -4.750266|   -4.712609|   -6.164318|
|         812|   -6.704665|   -4.753660|   -4.712766|   -6.167727|
|         813|   -6.702447|   -4.757100|   -4.713014|   -6.171118|
|         814|   -6.700276|   -4.760585|   -4.713325|   -6.174490|
|         815|   -6.698149|   -4.764122|   -4.713728|   -6.177847|
|         816|   -6.696074|   -4.767713|   -4.714227|   -6.181191|
|         817|   -6.694054|   -4.771354|   -4.714824|   -6.184523|
|         818|   -6.692089|   -4.775057|   -4.715529|   -6.187846|
|         819|   -6.690189|   -4.778806|   -4.716326|   -6.191157|
|         820|   -6.688349|   -4.782602|   -4.717233|   -6.194460|
|         821|   -6.686575|   -4.786449|   -4.718262|   -6.197756|
|         822|   -6.684867|   -4.790334|   -4.719389|   -6.201048|
|         823|   -6.683226|   -4.794257|   -4.720632|   -6.204333|
|         824|   -6.681653|   -4.798212|   -4.721995|   -6.207605|
|         825|   -6.680151|   -4.802189|   -4.723460|   -6.210866|
|         826|   -6.678717|   -4.806188|   -4.725040|   -6.214114|
|         827|   -6.677351|   -4.810206|   -4.726761|   -6.217343|
|         828|   -6.676056|   -4.814228|   -4.728591|   -6.220555|
|         829|   -6.674833|   -4.818242|   -4.730521|   -6.223748|
|         830|   -6.673680|   -4.822243|   -4.732584|   -6.226912|
|         831|   -6.672597|   -4.826230|   -4.734793|   -6.230041|
|         832|   -6.671587|   -4.830189|   -4.737123|   -6.233133|
|         833|   -6.670649|   -4.834101|   -4.739580|   -6.236182|
|         834|   -6.669787|   -4.837957|   -4.742166|   -6.239186|
|         835|   -6.669001|   -4.841734|   -4.744917|   -6.242134|
|         836|   -6.668296|   -4.845425|   -4.747778|   -6.245020|
|         837|   -6.667665|   -4.849024|   -4.750699|   -6.247840|
|         838|   -6.667103|   -4.852516|   -4.753716|   -6.250610|
|         839|   -6.666612|   -4.855885|   -4.756824|   -6.253316|
|         840|   -6.666185|   -4.859132|   -4.760006|   -6.255943|
|         841|   -6.665817|   -4.862260|   -4.763246|   -6.258491|
|         842|   -6.665503|   -4.865272|   -4.766532|   -6.260944|
|         843|   -6.665242|   -4.868176|   -4.769853|   -6.263276|
|         844|   -6.665033|   -4.870979|   -4.773199|   -6.265500|
|         845|   -6.664876|   -4.873691|   -4.776568|   -6.267711|
|         846|   -6.664771|   -4.876315|   -4.779951|   -6.269873|
|         847|   -6.664720|   -4.878855|   -4.783354|   -6.271850|
|         848|   -6.664721|   -4.881312|   -4.786766|   -6.273685|
|         849|   -6.664778|   -4.883692|   -4.790189|   -6.275398|
|         850|   -6.664891|   -4.885990|   -4.793615|   -6.277016|
|         851|   -6.665059|   -4.888213|   -4.797045|   -6.278509|
|         852|   -6.665286|   -4.890361|   -4.800481|   -6.279834|
|         853|   -6.665570|   -4.892435|   -4.803922|   -6.280930|
|         854|   -6.665910|   -4.894437|   -4.807367|   -6.282402|
|         855|   -6.666309|   -4.896369|   -4.810816|   -6.284081|
|         856|   -6.666764|   -4.898230|   -4.814267|   -6.285580|
|         857|   -6.667274|   -4.900020|   -4.817719|   -6.286900|
|         858|   -6.667839|   -4.901743|   -4.821171|   -6.288085|
|         859|   -6.668457|   -4.903399|   -4.824619|   -6.288995|
|         860|   -6.669124|   -4.904992|   -4.828061|   -6.289552|
|         861|   -6.669841|   -4.906522|   -4.831496|   -6.289758|
|         862|   -6.670603|   -4.907990|   -4.834925|   -6.289672|
|         863|   -6.671411|   -4.909399|   -4.838346|   -6.289373|
|         864|   -6.672262|   -4.910753|   -4.841756|   -6.288914|
|         865|   -6.673154|   -4.912052|   -4.845153|   -6.288160|
|         866|   -6.674087|   -4.913299|   -4.848537|   -6.287035|
|         867|   -6.675058|   -4.914494|   -4.851909|   -6.285636|
|         868|   -6.676068|   -4.915640|   -4.855268|   -6.284210|
|         869|   -6.677114|   -4.916739|   -4.858615|   -6.282798|
|         870|   -6.678197|   -4.917790|   -4.861949|   -6.281139|
|         871|   -6.679315|   -4.918799|   -4.865272|   -6.279240|
|         872|   -6.680467|   -4.919761|   -4.868583|   -6.277568|
|         873|   -6.681652|   -4.920680|   -4.871883|   -6.275896|
|         874|   -6.682869|   -4.921557|   -4.875173|   -6.274047|
|         875|   -6.684116|   -4.922391|   -4.878454|   -6.271940|
|         876|   -6.685394|   -4.923183|   -4.881727|   -6.269500|
|         877|   -6.686701|   -4.923931|   -4.884994|   -6.266838|
|         878|   -6.688036|   -4.924636|   -4.888255|   -6.264421|
|         879|   -6.689396|   -4.925303|   -4.891510|   -6.261704|
|         880|   -6.690782|   -4.925931|   -4.894760|   -6.258903|
|         881|   -6.692192|   -4.926521|   -4.898004|   -6.256297|
|         882|   -6.693625|   -4.927071|   -4.901243|   -6.253783|
|         883|   -6.695082|   -4.927580|   -4.904478|   -6.251058|
|         884|   -6.696561|   -4.928052|   -4.907708|   -6.248101|
|         885|   -6.698065|   -4.928488|   -4.910933|   -6.245400|
|         886|   -6.699593|   -4.928886|   -4.914154|   -6.242317|
|         887|   -6.701146|   -4.929251|   -4.917369|   -6.238892|
|         888|   -6.702724|   -4.929580|   -4.920579|   -6.235593|
|         889|   -6.704330|   -4.929876|   -4.923787|   -6.232342|
|         890|   -6.705965|   -4.930134|   -4.926990|   -6.228852|
|         891|   -6.707632|   -4.930355|   -4.930192|   -6.225421|
|         892|   -6.709332|   -4.930542|   -4.933389|   -6.222018|
|         893|   -6.711067|   -4.930690|   -4.936582|   -6.218824|
|         894|   -6.712840|   -4.930799|   -4.939773|   -6.216173|
|         895|   -6.714654|   -4.930867|   -4.942963|   -6.213842|
|         896|   -6.716512|   -4.930896|   -4.946154|   -6.211660|
|         897|   -6.718418|   -4.930885|   -4.949345|   -6.210085|
|         898|   -6.720372|   -4.930832|   -4.952538|   -6.208742|
|         899|   -6.722380|   -4.930735|   -4.955733|   -6.207497|
|         900|   -6.724443|   -4.930598|   -4.958931|   -6.206434|
|         901|   -6.726564|   -4.930417|   -4.962132|   -6.205299|
|         902|   -6.728747|   -4.930192|   -4.965338|   -6.204200|
|         903|   -6.730995|   -4.929921|   -4.968550|   -6.203105|
|         904|   -6.733310|   -4.929604|   -4.971771|   -6.201823|
|         905|   -6.735695|   -4.929241|   -4.975001|   -6.200265|
|         906|   -6.738153|   -4.928832|   -4.978241|   -6.198720|
|         907|   -6.740686|   -4.928378|   -4.981492|   -6.197303|
|         908|   -6.743298|   -4.927879|   -4.984756|   -6.196046|
|         909|   -6.745991|   -4.927331|   -4.988033|   -6.194915|
|         910|   -6.748765|   -4.926735|   -4.991324|   -6.193852|
|         911|   -6.751623|   -4.926093|   -4.994629|   -6.192956|
|         912|   -6.754568|   -4.925405|   -4.997947|   -6.192305|
|         913|   -6.757599|   -4.924676|   -5.001279|   -6.191984|
|         914|   -6.760719|   -4.923903|   -5.004628|   -6.191832|
|         915|   -6.763929|   -4.923085|   -5.007994|   -6.191767|
|         916|   -6.767230|   -4.922226|   -5.011378|   -6.191804|
|         917|   -6.770622|   -4.921327|   -5.014777|   -6.191892|
|         918|   -6.774107|   -4.920390|   -5.018193|   -6.191977|
|         919|   -6.777685|   -4.919417|   -5.021627|   -6.192103|
|         920|   -6.781357|   -4.918408|   -5.025077|   -6.192280|
|         921|   -6.785122|   -4.917363|   -5.028544|   -6.192462|
|         922|   -6.788981|   -4.916285|   -5.032026|   -6.192634|
|         923|   -6.792933|   -4.915177|   -5.035526|   -6.192798|
|         924|   -6.796977|   -4.914040|   -5.039045|   -6.192953|
|         925|   -6.801115|   -4.912874|   -5.042583|   -6.193101|
|         926|   -6.805346|   -4.911682|   -5.046139|   -6.193242|
|         927|   -6.809669|   -4.910467|   -5.049714|   -6.193378|
|         928|   -6.814083|   -4.909229|   -5.053307|   -6.193518|
|         929|   -6.818589|   -4.907974|   -5.056920|   -6.193651|
|         930|   -6.823184|   -4.906704|   -5.060551|   -6.193777|
|         931|   -6.827868|   -4.905420|   -5.064202|   -6.193898|
|         932|   -6.832640|   -4.904123|   -5.067872|   -6.194012|
|         933|   -6.837499|   -4.902816|   -5.071562|   -6.194121|
|         934|   -6.842444|   -4.901501|   -5.075272|   -6.194229|
|         935|   -6.847475|   -4.900179|   -5.079002|   -6.194333|
|         936|   -6.852589|   -4.898855|   -5.082752|   -6.194434|
|         937|   -6.857787|   -4.897530|   -5.086519|   -6.194531|
|         938|   -6.863066|   -4.896207|   -5.090304|   -6.194627|
|         939|   -6.868426|   -4.894890|   -5.094109|   -6.194721|
|         940|   -6.873866|   -4.893579|   -5.097933|   -6.194811|
|         941|   -6.879384|   -4.892276|   -5.101775|   -6.194898|
|         942|   -6.884980|   -4.890982|   -5.105634|   -6.194982|
|         943|   -6.890652|   -4.889702|   -5.109512|   -6.195062|
|         944|   -6.896400|   -4.888435|   -5.113411|   -6.195139|
|         945|   -6.902221|   -4.887183|   -5.117327|   -6.195213|
|         946|   -6.908116|   -4.885948|   -5.121263|   -6.195284|
|         947|   -6.914083|   -4.884731|   -5.125218|   -6.195353|
|         948|   -6.920120|   -4.883535|   -5.129190|   -6.195419|
|         949|   -6.926227|   -4.882360|   -5.133177|   -6.195482|
|         950|   -6.932401|   -4.881208|   -5.137177|   -6.195542|
|         951|   -6.938642|   -4.880081|   -5.141194|   -6.195599|
|         952|   -6.944948|   -4.878980|   -5.145228|   -6.195651|
|         953|   -6.951317|   -4.877903|   -5.149280|   -6.195699|
|         954|   -6.957748|   -4.876853|   -5.153346|   -6.195743|
|         955|   -6.964240|   -4.875830|   -5.157428|   -6.195782|
|         956|   -6.970792|   -4.874834|   -5.161524|   -6.195816|
|         957|   -6.977402|   -4.873867|   -5.165629|   -6.195844|
|         958|   -6.984068|   -4.872930|   -5.169748|   -6.195867|
|         959|   -6.990789|   -4.872023|   -5.173878|   -6.195884|
|         960|   -6.997564|   -4.871147|   -5.178018|   -6.195895|
|         961|   -7.004391|   -4.870301|   -5.182171|   -6.195898|
|         962|   -7.011269|   -4.869485|   -5.186337|   -6.195893|
|         963|   -7.018196|   -4.868700|   -5.190515|   -6.195881|
|         964|   -7.025171|   -4.867944|   -5.194704|   -6.195858|
|         965|   -7.032193|   -4.867218|   -5.198901|   -6.195826|
|         966|   -7.039258|   -4.866523|   -5.203106|   -6.195785|
|         967|   -7.046367|   -4.865858|   -5.207319|   -6.195736|
|         968|   -7.053517|   -4.865221|   -5.211539|   -6.195678|
|         969|   -7.060708|   -4.864614|   -5.215767|   -6.195618|
|         970|   -7.067936|   -4.864036|   -5.220000|   -6.195549|
|         971|   -7.075199|   -4.863486|   -5.224235|   -6.195468|
|         972|   -7.082497|   -4.862965|   -5.228472|   -6.195381|
|         973|   -7.089827|   -4.862472|   -5.232709|   -6.195289|
|         974|   -7.097185|   -4.862007|   -5.236943|   -6.195187|
|         975|   -7.104570|   -4.861568|   -5.241175|   -6.195069|
[...]
|        3531|   -7.673405|   -5.925216|   -5.889748|   -6.211971|
|        3532|   -7.672466|   -5.926625|   -5.888805|   -6.211758|
|        3533|   -7.671562|   -5.927978|   -5.888099|   -6.211540|
|        3534|   -7.670692|   -5.929311|   -5.887655|   -6.211321|
|        3535|   -7.669857|   -5.930658|   -5.887485|   -6.211098|
|        3536|   -7.669056|   -5.932051|   -5.887584|   -6.210870|
|        3537|   -7.668290|   -5.933516|   -5.887941|   -6.210641|
|        3538|   -7.667558|   -5.935072|   -5.888533|   -6.210409|
|        3539|   -7.666861|   -5.936734|   -5.889332|   -6.210181|
|        3540|   -7.666199|   -5.938510|   -5.890307|   -6.209952|
|        3541|   -7.665571|   -5.940400|   -5.891426|   -6.209719|
|        3542|   -7.664977|   -5.942399|   -5.892658|   -6.209481|
|        3543|   -7.664418|   -5.944495|   -5.893972|   -6.209241|
|        3544|   -7.663893|   -5.946673|   -5.895332|   -6.209021|
|        3545|   -7.663402|   -5.948913|   -5.896708|   -6.208822|
|        3546|   -7.662945|   -5.951190|   -5.898070|   -6.208623|
|        3547|   -7.662522|   -5.953479|   -5.899391|   -6.208423|
|        3548|   -7.662134|   -5.955755|   -5.900647|   -6.208218|
|        3549|   -7.661779|   -5.957991|   -5.901809|   -6.208011|
|        3550|   -7.661459|   -5.960164|   -5.902859|   -6.207807|
|        3551|   -7.661172|   -5.962254|   -5.903767|   -6.207609|
|        3552|   -7.660920|   -5.964246|   -5.904509|   -6.207421|
|        3553|   -7.660702|   -5.966124|   -5.905055|   -6.207235|
|        3554|   -7.660519|   -5.967878|   -5.905383|   -6.207048|
|        3555|   -7.660369|   -5.969505|   -5.905469|   -6.206860|
|        3556|   -7.660254|   -5.970999|   -5.905300|   -6.206672|
|        3557|   -7.660174|   -5.972358|   -5.904867|   -6.206484|
|        3558|   -7.660129|   -5.973580|   -5.904189|   -6.206294|
|        3559|   -7.660119|   -5.974670|   -5.903300|   -6.206105|
|        3560|   -7.660143|   -5.975637|   -5.902248|   -6.205918|
|        3561|   -7.660203|   -5.976478|   -5.901102|   -6.205733|
|        3562|   -7.660299|   -5.977197|   -5.899933|   -6.205549|
|        3563|   -7.660430|   -5.977800|   -5.898791|   -6.205370|
|        3564|   -7.660598|   -5.978272|   -5.897733|   -6.205193|
|        3565|   -7.660802|   -5.978607|   -5.896777|   -6.205012|
|        3566|   -7.661043|   -5.978795|   -5.895911|   -6.204835|
|        3567|   -7.661322|   -5.978805|   -5.895123|   -6.204653|
|        3568|   -7.661638|   -5.978624|   -5.894365|   -6.204466|
|        3569|   -7.661990|   -5.978222|   -5.893600|   -6.204279|
|        3570|   -7.662379|   -5.977579|   -5.892802|   -6.204091|
|        3571|   -7.662803|   -5.976691|   -5.891949|   -6.203901|
|        3572|   -7.663261|   -5.975552|   -5.891054|   -6.203710|
|        3573|   -7.663753|   -5.974174|   -5.890136|   -6.203518|
|        3574|   -7.664278|   -5.972577|   -5.889229|   -6.203331|
|        3575|   -7.664835|   -5.970790|   -5.888395|   -6.203148|
|        3576|   -7.665423|   -5.968850|   -5.887705|   -6.202967|
|        3577|   -7.666042|   -5.966800|   -5.887209|   -6.202786|
|        3578|   -7.666693|   -5.964689|   -5.886948|   -6.202611|
|        3579|   -7.667376|   -5.962564|   -5.886952|   -6.202450|
|        3580|   -7.668090|   -5.960470|   -5.887235|   -6.202299|
|        3581|   -7.668836|   -5.958444|   -5.887798|   -6.202155|
|        3582|   -7.669615|   -5.956514|   -5.888628|   -6.202022|
|        3583|   -7.670427|   -5.954702|   -5.889706|   -6.201900|
|        3584|   -7.671272|   -5.953021|   -5.891003|   -6.201789|
|        3585|   -7.672151|   -5.951475|   -5.892490|   -6.201689|
|        3586|   -7.673062|   -5.950061|   -5.894133|   -6.201604|
|        3587|   -7.674007|   -5.948771|   -5.895901|   -6.201534|
|        3588|   -7.674985|   -5.947586|   -5.897760|   -6.201473|
|        3589|   -7.675997|   -5.946490|   -5.899677|   -6.201419|
|        3590|   -7.677042|   -5.945460|   -5.901618|   -6.201372|
|        3591|   -7.678122|   -5.944469|   -5.903552|   -6.201331|
|        3592|   -7.679235|   -5.943493|   -5.905449|   -6.201294|
|        3593|   -7.680383|   -5.942509|   -5.907284|   -6.201261|
|        3594|   -7.681565|   -5.941492|   -5.909029|   -6.201231|
|        3595|   -7.682782|   -5.940423|   -5.910659|   -6.201203|
|        3596|   -7.684034|   -5.939290|   -5.912146|   -6.201178|
|        3597|   -7.685321|   -5.938080|   -5.913462|   -6.201155|
|        3598|   -7.686643|   -5.936787|   -5.914575|   -6.201135|
|        3599|   -7.688001|   -5.935406|   -5.915457|   -6.201116|
|        3600|   -7.689395|   -5.933938|   -5.916084|   -6.201098|
|        3601|   -7.690825|   -5.932387|   -5.916433|   -6.201083|
|        3602|   -7.692292|   -5.930753|   -5.916494|   -6.201068|
|        3603|   -7.693796|   -5.929039|   -5.916281|   -6.201055|
|        3604|   -7.695338|   -5.927255|   -5.915828|   -6.201044|
|        3605|   -7.696917|   -5.925411|   -5.915179|   -6.201034|
|        3606|   -7.698535|   -5.923507|   -5.914410|   -6.201025|
|        3607|   -7.700192|   -5.921550|   -5.913597|   -6.201017|
|        3608|   -7.701889|   -5.919547|   -5.912795|   -6.201009|
|        3609|   -7.703626|   -5.917491|   -5.912066|   -6.201003|
|        3610|   -7.705405|   -5.915377|   -5.911438|   -6.200997|
|        3611|   -7.707226|   -5.913203|   -5.910897|   -6.200993|
|        3612|   -7.709089|   -5.910948|   -5.910434|   -6.200990|
|        3613|   -7.710995|   -5.908607|   -5.909998|   -6.200987|
|        3614|   -7.712945|   -5.906160|   -5.909546|   -6.200986|
|        3615|   -7.714937|   -5.903595|   -5.909051|   -6.200985|
|        3616|   -7.716970|   -5.900915|   -5.908485|   -6.200985|
|        3617|   -7.719045|   -5.898116|   -5.907863|   -6.200985|
|        3618|   -7.721160|   -5.895210|   -5.907205|   -6.200986|
|        3619|   -7.723314|   -5.892213|   -5.906549|   -6.200987|
|        3620|   -7.725508|   -5.889146|   -5.905963|   -6.200989|
|        3621|   -7.727739|   -5.886035|   -5.905528|   -6.200990|
|        3622|   -7.730009|   -5.882910|   -5.905301|   -6.200991|
|        3623|   -7.732317|   -5.879806|   -5.905329|   -6.200991|
|        3624|   -7.734664|   -5.876753|   -5.905647|   -6.200993|
|        3625|   -7.737051|   -5.873779|   -5.906273|   -6.200997|
|        3626|   -7.739478|   -5.870911|   -5.907209|   -6.201001|
|        3627|   -7.741947|   -5.868165|   -5.908444|   -6.201004|
|        3628|   -7.744457|   -5.865552|   -5.909955|   -6.201008|
|        3629|   -7.747010|   -5.863082|   -5.911714|   -6.201010|
|        3630|   -7.749606|   -5.860754|   -5.913686|   -6.201012|
|        3631|   -7.752246|   -5.858564|   -5.915835|   -6.201014|
|        3632|   -7.754929|   -5.856505|   -5.918126|   -6.201015|
|        3633|   -7.757656|   -5.854562|   -5.920523|   -6.201015|
|        3634|   -7.760428|   -5.852724|   -5.922987|   -6.201014|
|        3635|   -7.763244|   -5.850973|   -5.925480|   -6.201013|
|        3636|   -7.766106|   -5.849292|   -5.927967|   -6.201010|
|        3637|   -7.769013|   -5.847662|   -5.930414|   -6.201007|
|        3638|   -7.771967|   -5.846069|   -5.932791|   -6.201004|
|        3639|   -7.774968|   -5.844495|   -5.935066|   -6.200999|
|        3640|   -7.778016|   -5.842929|   -5.937210|   -6.200994|
|        3641|   -7.781112|   -5.841361|   -5.939190|   -6.200988|
|        3642|   -7.784256|   -5.839784|   -5.940973|   -6.200981|
|        3643|   -7.787449|   -5.838193|   -5.942521|   -6.200974|
|        3644|   -7.790692|   -5.836584|   -5.943802|   -6.200966|
|        3645|   -7.793985|   -5.834958|   -5.944783|   -6.200958|
|        3646|   -7.797330|   -5.833316|   -5.945437|   -6.200949|
|        3647|   -7.800726|   -5.831658|   -5.945747|   -6.200939|
|        3648|   -7.804176|   -5.829986|   -5.945728|   -6.200929|
|        3649|   -7.807680|   -5.828303|   -5.945412|   -6.200918|
|        3650|   -7.811239|   -5.826616|   -5.944850|   -6.200908|
|        3651|   -7.814854|   -5.824924|   -5.944125|   -6.200897|
|        3652|   -7.818527|   -5.823230|   -5.943328|   -6.200886|
|        3653|   -7.822259|   -5.821537|   -5.942521|   -6.200875|
|        3654|   -7.826052|   -5.819839|   -5.941782|   -6.200865|
|        3655|   -7.829907|   -5.818133|   -5.941144|   -6.200855|
|        3656|   -7.833828|   -5.816416|   -5.940596|   -6.200845|
|        3657|   -7.837816|   -5.814674|   -5.940128|   -6.200836|
|        3658|   -7.841871|   -5.812902|   -5.939685|   -6.200827|
|        3659|   -7.845996|   -5.811086|   -5.939215|   -6.200818|
|        3660|   -7.850189|   -5.809218|   -5.938686|   -6.200809|
|        3661|   -7.854450|   -5.807297|   -5.938066|   -6.200800|
|        3662|   -7.858778|   -5.805318|   -5.937370|   -6.200791|
|        3663|   -7.863172|   -5.803290|   -5.936621|   -6.200782|
|        3664|   -7.867633|   -5.801218|   -5.935862|   -6.200772|
|        3665|   -7.872158|   -5.799118|   -5.935172|   -6.200763|
|        3666|   -7.876747|   -5.797003|   -5.934647|   -6.200753|
|        3667|   -7.881400|   -5.794895|   -5.934354|   -6.200742|
|        3668|   -7.886119|   -5.792814|   -5.934349|   -6.200730|
|        3669|   -7.890905|   -5.790782|   -5.934675|   -6.200717|
|        3670|   -7.895759|   -5.788820|   -5.935353|   -6.200706|
|        3671|   -7.900685|   -5.786943|   -5.936387|   -6.200692|
|        3672|   -7.905683|   -5.785165|   -5.937764|   -6.200676|
|        3673|   -7.910757|   -5.783495|   -5.939460|   -6.200660|
|        3674|   -7.915908|   -5.781940|   -5.941442|   -6.200644|
|        3675|   -7.921136|   -5.780499|   -5.943670|   -6.200627|
|        3676|   -7.926444|   -5.779173|   -5.946103|   -6.200609|
|        3677|   -7.931833|   -5.777955|   -5.948699|   -6.200591|
|        3678|   -7.937304|   -5.776837|   -5.951416|   -6.200572|
|        3679|   -7.942858|   -5.775811|   -5.954211|   -6.200551|
|        3680|   -7.948496|   -5.774864|   -5.957039|   -6.200531|
|        3681|   -7.954219|   -5.773984|   -5.959854|   -6.200510|
|        3682|   -7.960029|   -5.773159|   -5.962622|   -6.200488|
|        3683|   -7.965926|   -5.772378|   -5.965302|   -6.200465|
|        3684|   -7.971911|   -5.771628|   -5.967858|   -6.200442|
|        3685|   -7.977987|   -5.770899|   -5.970257|   -6.200418|
|        3686|   -7.984152|   -5.770185|   -5.972458|   -6.200393|
|        3687|   -7.990409|   -5.769480|   -5.974423|   -6.200367|
|        3688|   -7.996759|   -5.768779|   -5.976107|   -6.200341|
|        3689|   -8.003203|   -5.768080|   -5.977472|   -6.200314|
|        3690|   -8.009742|   -5.767382|   -5.978478|   -6.200287|
|        3691|   -8.016377|   -5.766685|   -5.979091|   -6.200259|
|        3692|   -8.023112|   -5.765991|   -5.979288|   -6.200230|
|        3693|   -8.029947|   -5.765296|   -5.979082|   -6.200201|
|        3694|   -8.036884|   -5.764605|   -5.978507|   -6.200172|
|        3695|   -8.043926|   -5.763922|   -5.977616|   -6.200143|
|        3696|   -8.051074|   -5.763244|   -5.976505|   -6.200113|
|        3697|   -8.058331|   -5.762574|   -5.975279|   -6.200083|
|        3698|   -8.065702|   -5.761913|   -5.974016|   -6.200053|
|        3699|   -8.073191|   -5.761257|   -5.972806|   -6.200023|
|        3700|   -8.080802|   -5.760603|   -5.971699|   -6.199994|
|        3701|   -8.088541|   -5.759948|   -5.970688|   -6.199964|
|        3702|   -8.096414|   -5.759281|   -5.969766|   -6.199934|
|        3703|   -8.104424|   -5.758596|   -5.968874|   -6.199905|
|        3704|   -8.112573|   -5.757885|   -5.967953|   -6.199876|
|        3705|   -8.120859|   -5.757136|   -5.966966|   -6.199847|
|        3706|   -8.129281|   -5.756349|   -5.965872|   -6.199819|
|        3707|   -8.137831|   -5.755519|   -5.964682|   -6.199790|
|        3708|   -8.146505|   -5.754650|   -5.963423|   -6.199762|
|        3709|   -8.155297|   -5.753746|   -5.962138|   -6.199733|
|        3710|   -8.164199|   -5.752817|   -5.960914|   -6.199704|
|        3711|   -8.173197|   -5.751873|   -5.959860|   -6.199675|
|        3712|   -8.182288|   -5.750931|   -5.959056|   -6.199645|
|        3713|   -8.191469|   -5.750009|   -5.958566|   -6.199614|
|        3714|   -8.200735|   -5.749123|   -5.958441|   -6.199582|
|        3715|   -8.210084|   -5.748292|   -5.958706|   -6.199551|
|        3716|   -8.219513|   -5.747530|   -5.959368|   -6.199519|
|        3717|   -8.229019|   -5.746850|   -5.960415|   -6.199485|
|        3718|   -8.238595|   -5.746262|   -5.961820|   -6.199450|
|        3719|   -8.248232|   -5.745771|   -5.963545|   -6.199415|
|        3720|   -8.257920|   -5.745382|   -5.965548|   -6.199379|
|        3721|   -8.267641|   -5.745095|   -5.967780|   -6.199342|
|        3722|   -8.277380|   -5.744905|   -5.970195|   -6.199304|
|        3723|   -8.287115|   -5.744809|   -5.972745|   -6.199266|
|        3724|   -8.296821|   -5.744798|   -5.975381|   -6.199227|
|        3725|   -8.306469|   -5.744865|   -5.978053|   -6.199188|
|        3726|   -8.316026|   -5.744998|   -5.980711|   -6.199149|
|        3727|   -8.325454|   -5.745188|   -5.983312|   -6.199108|
|        3728|   -8.334713|   -5.745424|   -5.985812|   -6.199067|
|        3729|   -8.343759|   -5.745695|   -5.988173|   -6.199026|
|        3730|   -8.352541|   -5.745994|   -5.990358|   -6.198984|
|        3731|   -8.361006|   -5.746313|   -5.992322|   -6.198941|
|        3732|   -8.369098|   -5.746646|   -5.994027|   -6.198898|
|        3733|   -8.376757|   -5.746989|   -5.995425|   -6.198854|
|        3734|   -8.383924|   -5.747339|   -5.996475|   -6.198809|
|        3735|   -8.390540|   -5.747694|   -5.997136|   -6.198764|
|        3736|   -8.396546|   -5.748055|   -5.997371|   -6.198719|
|        3737|   -8.401889|   -5.748422|   -5.997149|   -6.198672|
|        3738|   -8.406520|   -5.748793|   -5.996480|   -6.198626|
|        3739|   -8.410396|   -5.749169|   -5.995392|   -6.198580|
|        3740|   -8.413477|   -5.749554|   -5.993938|   -6.198534|
|        3741|   -8.415737|   -5.749948|   -5.992207|   -6.198487|
|        3742|   -8.417162|   -5.750349|   -5.990317|   -6.198441|
|        3743|   -8.417749|   -5.750760|   -5.988357|   -6.198395|
|        3744|   -8.417512|   -5.751179|   -5.986420|   -6.198349|
|        3745|   -8.416470|   -5.751600|   -5.984582|   -6.198303|
|        3746|   -8.414659|   -5.752021|   -5.982848|   -6.198258|
|        3747|   -8.412120|   -5.752434|   -5.981217|   -6.198213|
|        3748|   -8.408886|   -5.752829|   -5.979647|   -6.198168|
|        3749|   -8.405000|   -5.753201|   -5.978066|   -6.198123|
|        3750|   -8.400495|   -5.753536|   -5.976440|   -6.198079|
|        3751|   -8.395399|   -5.753831|   -5.974719|   -6.198035|
|        3752|   -8.389746|   -5.754080|   -5.972900|   -6.197991|
|        3753|   -8.383566|   -5.754285|   -5.971007|   -6.197948|
|        3754|   -8.376906|   -5.754448|   -5.969076|   -6.197905|
|        3755|   -8.369805|   -5.754576|   -5.967179|   -6.197862|
|        3756|   -8.362290|   -5.754679|   -5.965431|   -6.197818|
|        3757|   -8.354419|   -5.754770|   -5.963921|   -6.197774|
|        3758|   -8.346250|   -5.754868|   -5.962715|   -6.197729|
|        3759|   -8.337837|   -5.754989|   -5.961872|   -6.197684|
|        3760|   -8.329232|   -5.755153|   -5.961425|   -6.197637|
|        3761|   -8.320486|   -5.755377|   -5.961384|   -6.197591|
|        3762|   -8.311643|   -5.755676|   -5.961741|   -6.197544|
|        3763|   -8.302739|   -5.756061|   -5.962473|   -6.197496|
|        3764|   -8.293805|   -5.756542|   -5.963544|   -6.197447|
|        3765|   -8.284863|   -5.757126|   -5.964909|   -6.197398|
|        3766|   -8.275935|   -5.757814|   -5.966522|   -6.197347|
|        3767|   -8.267034|   -5.758605|   -5.968332|   -6.197297|
|        3768|   -8.258176|   -5.759498|   -5.970293|   -6.197246|
|        3769|   -8.249371|   -5.760484|   -5.972353|   -6.197195|
|        3770|   -8.240627|   -5.761557|   -5.974467|   -6.197144|
|        3771|   -8.231950|   -5.762708|   -5.976581|   -6.197093|
|        3772|   -8.223346|   -5.763926|   -5.978650|   -6.197042|
|        3773|   -8.214821|   -5.765199|   -5.980634|   -6.196991|
|        3774|   -8.206380|   -5.766518|   -5.982496|   -6.196939|
|        3775|   -8.198024|   -5.767871|   -5.984195|   -6.196887|
|        3776|   -8.189755|   -5.769251|   -5.985696|   -6.196834|
|        3777|   -8.181578|   -5.770650|   -5.986963|   -6.196781|
|        3778|   -8.173494|   -5.772062|   -5.987954|   -6.196728|
|        3779|   -8.165505|   -5.773484|   -5.988629|   -6.196676|
|        3780|   -8.157613|   -5.774913|   -5.988954|   -6.196623|
|        3781|   -8.149822|   -5.776347|   -5.988892|   -6.196569|
|        3782|   -8.142133|   -5.777787|   -5.988414|   -6.196516|
|        3783|   -8.134548|   -5.779232|   -5.987509|   -6.196462|
|        3784|   -8.127071|   -5.780679|   -5.986197|   -6.196410|
|        3785|   -8.119701|   -5.782133|   -5.984520|   -6.196359|
|        3786|   -8.112441|   -5.783596|   -5.982534|   -6.196307|
|        3787|   -8.105293|   -5.785065|   -5.980347|   -6.196257|
|        3788|   -8.098258|   -5.786539|   -5.978057|   -6.196206|
|        3789|   -8.091338|   -5.788023|   -5.975742|   -6.196156|
|        3790|   -8.084537|   -5.789507|   -5.973494|   -6.196107|
|        3791|   -8.077856|   -5.790986|   -5.971353|   -6.196058|
|        3792|   -8.071297|   -5.792459|   -5.969312|   -6.196009|
|        3793|   -8.064860|   -5.793907|   -5.967370|   -6.195961|
|        3794|   -8.058546|   -5.795326|   -5.965465|   -6.195914|
|        3795|   -8.052351|   -5.796701|   -5.963549|   -6.195867|
|        3796|   -8.046271|   -5.798020|   -5.961585|   -6.195820|
|        3797|   -8.040302|   -5.799279|   -5.959538|   -6.195774|
|        3798|   -8.034440|   -5.800471|   -5.957424|   -6.195729|
|        3799|   -8.028680|   -5.801597|   -5.955266|   -6.195684|
|        3800|   -8.023019|   -5.802663|   -5.953104|   -6.195638|
|        3801|   -8.017452|   -5.803676|   -5.951027|   -6.195593|
|        3802|   -8.011974|   -5.804649|   -5.949136|   -6.195548|
|        3803|   -8.006586|   -5.805602|   -5.947498|   -6.195503|
|        3804|   -8.001289|   -5.806555|   -5.946171|   -6.195457|
|        3805|   -7.996083|   -5.807533|   -5.945203|   -6.195411|
|        3806|   -7.990969|   -5.808559|   -5.944613|   -6.195364|
|        3807|   -7.985947|   -5.809653|   -5.944403|   -6.195319|
|        3808|   -7.981019|   -5.810835|   -5.944560|   -6.195271|
|        3809|   -7.976183|   -5.812118|   -5.945057|   -6.195224|
|        3810|   -7.971438|   -5.813515|   -5.945858|   -6.195177|
|        3811|   -7.966783|   -5.815034|   -5.946920|   -6.195129|
|        3812|   -7.962215|   -5.816677|   -5.948198|   -6.195081|
|        3813|   -7.957732|   -5.818444|   -5.949647|   -6.195033|
|        3814|   -7.953333|   -5.820329|   -5.951223|   -6.194986|
|        3815|   -7.949013|   -5.822326|   -5.952883|   -6.194939|
|        3816|   -7.944772|   -5.824426|   -5.954581|   -6.194892|
|        3817|   -7.940606|   -5.826616|   -5.956273|   -6.194846|
|        3818|   -7.936512|   -5.828883|   -5.957920|   -6.194801|
|        3819|   -7.932488|   -5.831213|   -5.959487|   -6.194755|
|        3820|   -7.928533|   -5.833592|   -5.960940|   -6.194710|
|        3821|   -7.924643|   -5.836007|   -5.962248|   -6.194665|
|        3822|   -7.920818|   -5.838446|   -5.963378|   -6.194622|
|        3823|   -7.917054|   -5.840901|   -5.964301|   -6.194580|
|        3824|   -7.913351|   -5.843364|   -5.964978|   -6.194538|
|        3825|   -7.909706|   -5.845829|   -5.965379|   -6.194497|
|        3826|   -7.906120|   -5.848293|   -5.965474|   -6.194456|
|        3827|   -7.902590|   -5.850754|   -5.965233|   -6.194415|
|        3828|   -7.899117|   -5.853212|   -5.964632|   -6.194374|
