scsub> Executing:  'cd /home/hem1dev/Codes/SU2_Github_Mark_Test/SU2/Venturi'


WARNING: CONV_CRITERIA is deprecated. SU2 will choose the criteria automatically based on the CONV_FIELD.
That is, RESIDUAL for any RMS_* BGS_* value, and CAUCHY for coefficients such as DRAG etc.


-------------------------------------------------------------------------
|    ___ _   _ ___                                                      |
|   / __| | | |_  )   Release 7.1.1 "Blackbird"                         |
|   \__ \ |_| |/ /                                                      |
|   |___/\___//___|   Suite (Computational Fluid Dynamics Code)         |
|                                                                       |
-------------------------------------------------------------------------
| SU2 Project Website: https://su2code.github.io                        |
|                                                                       |
| The SU2 Project is maintained by the SU2 Foundation                   |
| (http://su2foundation.org)                                            |
-------------------------------------------------------------------------
| Copyright 2012-2021, SU2 Contributors                                 |
|                                                                       |
| SU2 is free software; you can redistribute it and/or                  |
| modify it under the terms of the GNU Lesser General Public            |
| License as published by the Free Software Foundation; either          |
| version 2.1 of the License, or (at your option) any later version.    |
|                                                                       |
| SU2 is distributed in the hope that it will be useful,                |
| but WITHOUT ANY WARRANTY; without even the implied warranty of        |
| MERCHANTABILITY or FITNESS FOR A PARTICULAR PURPOSE. See the GNU      |
| Lesser General Public License for more details.                       |
|                                                                       |
| You should have received a copy of the GNU Lesser General Public      |
| License along with SU2. If not, see <http://www.gnu.org/licenses/>.   |
-------------------------------------------------------------------------


WARNING: CONV_CRITERIA is deprecated. SU2 will choose the criteria automatically based on the CONV_FIELD.
That is, RESIDUAL for any RMS_* BGS_* value, and CAUCHY for coefficients such as DRAG etc.


Parsing config file for zone 0


WARNING: CONV_CRITERIA is deprecated. SU2 will choose the criteria automatically based on the CONV_FIELD.
That is, RESIDUAL for any RMS_* BGS_* value, and CAUCHY for coefficients such as DRAG etc.


----------------- Physical Case Definition ( Zone 0 ) -------------------
Incompressible RANS equations.
Turbulence model: Menter's SST
Hybrid RANS/LES: No Hybrid RANS/LES
No restart solution, use the values at infinity (freestream).
Dimensional simulation.
The reference area is 1 m^2.
The semi-span will be computed using the max y(3D) value.
The reference length is 1 m.
Input mesh file name: c6_cms_venturi.cgns

--------------- Space Numerical Integration ( Zone 0 ) ------------------
Flux difference splitting (FDS) upwind scheme for the flow inviscid terms.
Second order integration in space, with slope limiter.
No slope-limiting method. 
Average of gradients with correction (viscous flow terms).
Average of gradients with correction (viscous turbulence terms).
Gradient for upwind reconstruction: inverse-distance weighted Least-Squares.
Gradient for viscous and source terms: inverse-distance weighted Least-Squares.

--------------- Time Numerical Integration  ( Zone 0 ) ------------------
Local time stepping (steady state simulation).
Euler implicit method for the flow equations.
FGMRES is used for solving the linear system.
Using a ILU(0) preconditioning.
Convergence criteria of the linear solver: 1e-08.
Max number of linear iterations: 20.
No CFL adaptation.
Courant-Friedrichs-Lewy number:      100
Euler implicit time integration for the turbulence model.

------------------ Convergence Criteria  ( Zone 0 ) ---------------------
Maximum number of solver subiterations: 10000.
Begin convergence monitoring at iteration 10.
Residual minimum value: 1e-10.
Cauchy series min. value: 1e-06.
Number of Cauchy elements: 100.
Begin windowed time average at iteration 0.

-------------------- Output Information ( Zone 0 ) ----------------------
Writing solution files every 500 iterations.
Writing the convergence history file every 1 inner iterations.
Writing the screen convergence history every 1 inner iterations.
The tabular file format is CSV (.csv).
Convergence history file name: history_test.
Forces breakdown file name: forces_breakdown.dat.
Surface file name: surface_flow_venturi_mixturedensity_30kW_fine_test.
Volume file name: flow_venturi_mixturedensity_30kW_fine_test.
Restart file name: restart_venturi_mixturedensity_30kW_fine_test.dat.

------------- Config File Boundary Information ( Zone 0 ) ---------------
+-----------------------------------------------------------------------+
|                        Marker Type|                        Marker Name|
+-----------------------------------------------------------------------+
|                     Symmetry plane|                               axis|
+-----------------------------------------------------------------------+
|                     Inlet boundary|                          gas_inlet|
|                                   |                          air_inlet|
+-----------------------------------------------------------------------+
|                    Outlet boundary|                             outlet|
+-----------------------------------------------------------------------+
|                     Heat flux wall|            wall-component1-surface|
+-----------------------------------------------------------------------+

-------------------- Output Preprocessing ( Zone 0 ) --------------------
Screen output fields: INNER_ITER, RMS_PRESSURE, RMS_VELOCITY-X, RMS_VELOCITY-Y, RMS_PASSIVE_SCALAR
History output group(s): RMS_RES, AERO_COEFF, FLOW_COEFF
Convergence field(s): RMS_PRESSURE, RMS_VELOCITY-X, RMS_VELOCITY-Y, RMS_TKE
Warning: No (valid) fields chosen for time convergence monitoring. Time convergence monitoring inactive.
  Info: Ignoring the following volume output fields/groups:
  SOURCE, LOOKUP
Volume output fields: DENSITY, SOLUTION, PRIMITIVE, RESIDUAL, COORDINATES

------------------- Geometry Preprocessing ( Zone 0 ) -------------------
Reading the CGNS file: c6_cms_venturi.cgns.
CGNS file contains 1 database(s).
Database 1, Base:  cell dimension of 2, physical dimension of 2.
1 total zone(s).
Zone 1, Zone: 292948 total vertices, 295883 total elements.
Loading CoordinateX values into linear partitions.
Loading CoordinateY values into linear partitions.
Distributing connectivity across all ranks.
Number of connectivity sections is 6.
Section gas_inlet contains 51 elements of type Mixed.
Section air_inlet contains 150 elements of type Mixed.
Section outlet contains 157 elements of type Mixed.
Section axis contains 1721 elements of type Mixed.
Section component1-surface contains 290183 elements of type Mixed.
Section wall-component1-surface contains 3621 elements of type Mixed.
Loading surface section gas_inlet from file.
Loading surface section air_inlet from file.
Loading surface section outlet from file.
Loading surface section axis from file.
Loading volume section component1-surface from file.
Loading surface section wall-component1-surface from file.
Two dimensional problem.
292948 grid points before partitioning.
290183 volume elements before partitioning.
5 surface markers.
51 boundary elements in index 0 (Marker = gas_inlet).
150 boundary elements in index 1 (Marker = air_inlet).
157 boundary elements in index 2 (Marker = outlet).
1721 boundary elements in index 3 (Marker = axis).
3621 boundary elements in index 4 (Marker = wall-component1-surface).
Executing the partitioning functions.
Building the graph adjacency structure.
Calling ParMETIS... graph partitioning complete (8746 edge cuts).
Distributing ParMETIS coloring.
Rebalancing vertices.
Rebalancing volume element connectivity.
Rebalancing markers and surface elements.
310564 vertices including ghost points. 
298925 interior elements including halo cells. 
176 triangles.
298749 quadrilaterals.
Establishing MPI communication patterns.
Setting point connectivity.
Renumbering points (Reverse Cuthill McKee Ordering).
Recomputing point connectivity.
Setting element connectivity.
Checking the numerical grid orientation.
All volume elements are correctly orientend.
All surface elements are correctly orientend.
Identifying edges and vertices.
Setting the control volume structure.
Area of the computational grid: 0.00281152.
Searching for the closest normal neighbors to the surfaces.
Storing a mapping from global to local point index.
Compute the surface curvature.
Max K: 25766.3. Mean K: 66.0693. Standard deviation K: 1007.76.
Checking for periodicity.
Computing mesh quality statistics for the dual control volumes.
+--------------------------------------------------------------+
|           Mesh Quality Metric|        Minimum|        Maximum|
+--------------------------------------------------------------+
|    Orthogonality Angle (deg.)|        45.2115|             90|
|     CV Face Area Aspect Ratio|              1|        10.3208|
|           CV Sub-Volume Ratio|              1|        9.85984|
+--------------------------------------------------------------+
Finding max control volume width.
Communicating number of neighbors.
Wetted area = 0 m.
Area projection in the x-plane = 0 m, y-plane = 0 m.
Max. coordinate in the x-direction = -1e+10 m, y-direction = -1e+10 m.
Min. coordinate in the x-direction = 1e+10 m, y-direction = 1e+10 m.
Checking if Euler & Symmetry markers are straight/plane:
Boundary marker axis is a single straight.
Computing wall distances.

-------------------- Solver Preprocessing ( Zone 0 ) --------------------
Incompressible flow: rho_ref, vel_ref, temp_ref, p_ref
are set to 1.0 in order to perform a dimensional calculation.
Force coefficients computed using initial values.
The reference area for force coeffs. is 1 m^2.
The reference length for force coeffs. is 1 m.
The pressure is decomposed into thermodynamic and dynamic components.
The initial value of the dynamic pressure is 0.
Mach number: 0, computed using fluid speed of sound.
For external flows, the initial state is imposed at the far-field.
Angle of attack (deg): 0, computed using the initial velocity.
Side slip angle (deg): 0, computed using the initial velocity.
Reynolds number per meter: 104827, computed using initial values.
Reynolds number is a byproduct of inputs only (not used internally).
SI units only. The grid should be dimensional (meters).
Energy equation is active and coupled for variable density.

-- Models:
+------------------------------------------------------------------------------+
|          Viscosity Model|        Conductivity Model|              Fluid Model|
+------------------------------------------------------------------------------+
|       CONSTANT_VISCOSITY|                  CONSTANT|+------------------------------------------------------------------------------+
-- Fluid properties:
+------------------------------------------------------------------------------+
|                  Name|    Dim. value|    Ref. value|      Unit|Non-dim. value|
+------------------------------------------------------------------------------+
|             Viscosity|     1.118e-05|             1|   N.s/m^2|     1.118e-05|
+------------------------------------------------------------------------------+
|       Molecular Cond.|         0.072|             1|   W/m^2.K|         0.072|
+------------------------------------------------------------------------------+
-- Initial and free-stream conditions:
+------------------------------------------------------------------------------+
|                  Name|    Dim. value|    Ref. value|      Unit|Non-dim. value|
+------------------------------------------------------------------------------+
|      Dynamic Pressure|             0|             1|        Pa|             0|
|        Total Pressure|      0.585985|             1|        Pa|      0.585985|
|               Density|       1.17197|             1|    kg/m^3|       1.17197|
|           Temperature|           300|             1|         K|           300|
|            Velocity-X|             1|             1|       m/s|             1|
|            Velocity-Y|             0|             1|       m/s|             0|
|    Velocity Magnitude|             1|             1|       m/s|             1|
+------------------------------------------------------------------------------+
|             Viscosity|     1.118e-05|             1|   N.s/m^2|     1.118e-05|
|          Conductivity|             -|             1|   W/m^2.K|             -|
|     Turb. Kin. Energy|       0.00375|             1|   m^2/s^2|       0.00375|
|     Spec. Dissipation|       39.3103|             1|       1/s|       39.3103|
+------------------------------------------------------------------------------+
|           Mach Number|             -|             -|         -|             0|
|       Reynolds Number|             -|             -|         -|        104827|
+------------------------------------------------------------------------------+
Initialize Jacobian structure (Navier-Stokes). MG level: 0.
Initialize Jacobian structure (passive scalar model).
Initialize Jacobian structure (SST model).

------------------- Numerics Preprocessing ( Zone 0 ) -------------------

----------------- Integration Preprocessing ( Zone 0 ) ------------------

------------------- Iteration Preprocessing ( Zone 0 ) ------------------
Euler/Navier-Stokes/RANS fluid iteration.

------------------------------ Begin Solver -----------------------------

Simulation Run using the Single-zone Driver
Initializing passive scalar (initial condition).
initialization = 1 1
+----------------------------------------------------------------+
|  Inner_Iter|      rms[P]|      rms[U]|      rms[V]|      rms[c]|
+----------------------------------------------------------------+
|           0|   -5.116953|   -4.847332|   -4.364756|   -5.702855|
|           1|   -5.021592|   -4.884567|   -4.114781|   -5.243951|
|           2|   -5.383206|   -4.673261|   -4.012205|   -5.333128|
|           3|   -5.521915|   -4.833461|   -4.105798|   -5.470361|
|           4|   -5.713639|   -4.895347|   -4.178736|   -5.528866|
|           5|   -5.633658|   -4.914555|   -4.368644|   -5.558392|
|           6|   -5.735640|   -4.864394|   -4.550811|   -5.589540|
|           7|   -5.778307|   -4.808982|   -4.678082|   -5.639121|
|           8|   -5.807567|   -4.771946|   -4.676014|   -5.697047|
|           9|   -5.806961|   -4.752079|   -4.570381|   -5.740730|
|          10|   -5.785574|   -4.738041|   -4.421809|   -5.760862|
|          11|   -5.765215|   -4.724742|   -4.329849|   -5.761584|
|          12|   -5.769031|   -4.711344|   -4.297989|   -5.750890|
|          13|   -5.795338|   -4.696897|   -4.302037|   -5.736550|
|          14|   -5.830191|   -4.679229|   -4.325512|   -5.723888|
|          15|   -5.862935|   -4.656880|   -4.355303|   -5.715152|
|          16|   -5.889739|   -4.630796|   -4.379018|   -5.710100|
|          17|   -5.909840|   -4.603467|   -4.388453|   -5.707332|
|          18|   -5.923650|   -4.577143|   -4.382901|   -5.705280|
|          19|   -5.932931|   -4.552955|   -4.367920|   -5.702779|
|          20|   -5.940338|   -4.531061|   -4.350534|   -5.699255|
|          21|   -5.948180|   -4.511146|   -4.335744|   -5.694637|
|          22|   -5.957581|   -4.492831|   -4.325748|   -5.689170|
|          23|   -5.968480|   -4.475823|   -4.320387|   -5.683222|
|          24|   -5.980145|   -4.459918|   -4.318450|   -5.677136|
|          25|   -5.991766|   -4.444941|   -4.318061|   -5.671146|
|          26|   -6.002805|   -4.430738|   -4.317526|   -5.665348|
|          27|   -6.013062|   -4.417189|   -4.315762|   -5.659742|
|          28|   -6.022546|   -4.404195|   -4.313469|   -5.654297|
|          29|   -6.031364|   -4.391694|   -4.310962|   -5.648972|
|          30|   -6.039649|   -4.379624|   -4.308622|   -5.643741|
|          31|   -6.047517|   -4.367905|   -4.306733|   -5.638594|
|          32|   -6.055022|   -4.356458|   -4.305389|   -5.633524|
|          33|   -6.062111|   -4.345215|   -4.304457|   -5.628515|
|          34|   -6.068754|   -4.334160|   -4.303653|   -5.623558|
|          35|   -6.074926|   -4.323318|   -4.302700|   -5.618670|
|          36|   -6.080616|   -4.312730|   -4.301091|   -5.613897|
|          37|   -6.085863|   -4.302409|   -4.297972|   -5.609298|
|          38|   -6.090779|   -4.292333|   -4.292517|   -5.604919|
|          39|   -6.095457|   -4.282526|   -4.286855|   -5.600786|
|          40|   -6.099817|   -4.272996|   -4.281659|   -5.596875|
|          41|   -6.103779|   -4.263708|   -4.277342|   -5.593127|
|          42|   -6.107353|   -4.254575|   -4.274104|   -5.589516|
|          43|   -6.110646|   -4.245411|   -4.271177|   -5.586058|
|          44|   -6.113762|   -4.236094|   -4.269198|   -5.582846|
|          45|   -6.116593|   -4.226629|   -4.267632|   -5.579933|
|          46|   -6.119135|   -4.217277|   -4.267425|   -5.577283|
|          47|   -6.121308|   -4.208472|   -4.268388|   -5.574826|
|          48|   -6.123152|   -4.200571|   -4.269180|   -5.572469|
|          49|   -6.124882|   -4.193873|   -4.270169|   -5.570166|
|          50|   -6.126532|   -4.188547|   -4.271743|   -5.567888|
|          51|   -6.127966|   -4.184563|   -4.273839|   -5.565671|
|          52|   -6.129250|   -4.181749|   -4.276506|   -5.563570|
|          53|   -6.130343|   -4.179869|   -4.279840|   -5.561661|
|          54|   -6.131234|   -4.178671|   -4.283802|   -5.559927|
|          55|   -6.131778|   -4.178003|   -4.288198|   -5.558248|
|          56|   -6.131912|   -4.177794|   -4.292670|   -5.556397|
|          57|   -6.131658|   -4.177992|   -4.296843|   -5.554110|
|          58|   -6.131138|   -4.178515|   -4.300353|   -5.551185|
|          59|   -6.130004|   -4.179156|   -4.302765|   -5.547549|
|          60|   -6.127767|   -4.179560|   -4.303695|   -5.543234|
|          61|   -6.124129|   -4.179245|   -4.302970|   -5.538312|
|          62|   -6.119016|   -4.177756|   -4.300746|   -5.532847|
|          63|   -6.112498|   -4.174840|   -4.297300|   -5.526905|
|          64|   -6.104706|   -4.170496|   -4.292688|   -5.520566|
|          65|   -6.095803|   -4.164992|   -4.286751|   -5.513892|
|          66|   -6.085782|   -4.158716|   -4.279124|   -5.506905|
|          67|   -6.074528|   -4.152057|   -4.269338|   -5.499563|
|          68|   -6.061839|   -4.145251|   -4.256957|   -5.491740|
|          69|   -6.047453|   -4.138233|   -4.241654|   -5.483250|
|          70|   -6.031213|   -4.130777|   -4.223463|   -5.473879|
|          71|   -6.012960|   -4.122778|   -4.202600|   -5.463567|
|          72|   -5.993637|   -4.114691|   -4.179452|   -5.452536|
|          73|   -5.972725|   -4.106420|   -4.154636|   -5.441797|
|          74|   -5.951155|   -4.098302|   -4.129914|   -5.432997|
|          75|   -5.931805|   -4.090415|   -4.108308|   -5.427665|
|          76|   -5.917531|   -4.082512|   -4.092918|   -5.426589|
|          77|   -5.909698|   -4.074385|   -4.085456|   -5.429437|
|          78|   -5.907446|   -4.066671|   -4.086990|   -5.434912|
|          79|   -5.909916|   -4.060278|   -4.094899|   -5.441360|
|          80|   -5.915828|   -4.055934|   -4.104557|   -5.447892|
|          81|   -5.922999|   -4.053089|   -4.114335|   -5.454448|
|          82|   -5.931236|   -4.050873|   -4.124142|   -5.460883|
|          83|   -5.939041|   -4.048051|   -4.134496|   -5.466934|
|          84|   -5.944699|   -4.044238|   -4.144145|   -5.472248|
|          85|   -5.947452|   -4.039567|   -4.152068|   -5.476002|
|          86|   -5.945993|   -4.032507|   -4.158430|   -5.477503|
|          87|   -5.940262|   -4.024029|   -4.162586|   -5.476166|
|          88|   -5.930473|   -4.014913|   -4.161813|   -5.471721|
|          89|   -5.918518|   -4.004921|   -4.152882|   -5.464028|
|          90|   -5.904242|   -3.994378|   -4.134172|   -5.453318|
|          91|   -5.886202|   -3.984377|   -4.107906|   -5.440833|
|          92|   -5.864286|   -3.976033|   -4.079206|   -5.428536|
|          93|   -5.840622|   -3.969606|   -4.053216|   -5.418444|
|          94|   -5.819121|   -3.965237|   -4.033809|   -5.411653|
|          95|   -5.803579|   -3.962622|   -4.022443|   -5.408352|
|          96|   -5.794626|   -3.961194|   -4.017941|   -5.408166|
|          97|   -5.790832|   -3.960254|   -4.017707|   -5.410583|
|          98|   -5.791673|   -3.959409|   -4.020516|   -5.415042|
|          99|   -5.796466|   -3.958818|   -4.025442|   -5.420973|
|         100|   -5.804863|   -3.958585|   -4.032097|   -5.427825|
|         101|   -5.815469|   -3.958863|   -4.041100|   -5.435126|
|         102|   -5.828232|   -3.960330|   -4.052103|   -5.442318|
|         103|   -5.843293|   -3.963619|   -4.064224|   -5.449176|
|         104|   -5.859160|   -3.968199|   -4.076584|   -5.455423|
|         105|   -5.873983|   -3.973600|   -4.089002|   -5.460720|
|         106|   -5.888561|   -3.979846|   -4.101119|   -5.464412|
|         107|   -5.902027|   -3.986950|   -4.111548|   -5.465765|
|         108|   -5.913112|   -3.995015|   -4.118523|   -5.464445|
|         109|   -5.921325|   -4.003249|   -4.121469|   -5.460547|
|         110|   -5.925184|   -4.011241|   -4.121565|   -5.454395|
|         111|   -5.920525|   -4.018589|   -4.120197|   -5.447262|
|         112|   -5.909835|   -4.024773|   -4.117660|   -5.440473|
|         113|   -5.899836|   -4.029093|   -4.114846|   -5.434022|
|         114|   -5.889065|   -4.031295|   -4.112687|   -5.428346|
|         115|   -5.879035|   -4.032432|   -4.111613|   -5.423632|
|         116|   -5.869540|   -4.033136|   -4.112118|   -5.420103|
|         117|   -5.861877|   -4.033693|   -4.114342|   -5.417945|
|         118|   -5.855813|   -4.034983|   -4.117887|   -5.417506|
|         119|   -5.852582|   -4.037349|   -4.122739|   -5.418625|
|         120|   -5.850508|   -4.040950|   -4.128030|   -5.421506|
|         121|   -5.851020|   -4.045508|   -4.133288|   -5.425896|
|         122|   -5.852969|   -4.051163|   -4.137884|   -5.431689|
|         123|   -5.855881|   -4.057721|   -4.140531|   -5.438694|
|         124|   -5.860373|   -4.064931|   -4.140986|   -5.446345|
|         125|   -5.865314|   -4.072618|   -4.139636|   -5.454210|
|         126|   -5.870538|   -4.080515|   -4.136754|   -5.462180|
|         127|   -5.874696|   -4.088007|   -4.132698|   -5.469973|
|         128|   -5.878313|   -4.094828|   -4.127563|   -5.477565|
|         129|   -5.881734|   -4.100896|   -4.122113|   -5.484651|
|         130|   -5.884583|   -4.106173|   -4.115424|   -5.491581|
|         131|   -5.892013|   -4.110049|   -4.108774|   -5.497397|
|         132|   -5.899852|   -4.113579|   -4.103340|   -5.502129|
|         133|   -5.906989|   -4.116732|   -4.099157|   -5.505977|
|         134|   -5.913235|   -4.119534|   -4.096334|   -5.509137|
|         135|   -5.918667|   -4.122151|   -4.094875|   -5.511774|
|         136|   -5.923581|   -4.124613|   -4.094583|   -5.513991|
|         137|   -5.927706|   -4.126828|   -4.095308|   -5.515993|
|         138|   -5.931513|   -4.128737|   -4.096765|   -5.517795|
|         139|   -5.934730|   -4.130225|   -4.098635|   -5.519451|
|         140|   -5.937971|   -4.131460|   -4.100667|   -5.520845|
|         141|   -5.940752|   -4.132548|   -4.102678|   -5.521988|
|         142|   -5.943255|   -4.133543|   -4.104462|   -5.522910|
|         143|   -5.945201|   -4.134538|   -4.106282|   -5.523709|
|         144|   -5.946278|   -4.135374|   -4.108066|   -5.524295|
|         145|   -5.947005|   -4.136052|   -4.109477|   -5.524794|
|         146|   -5.947851|   -4.137116|   -4.110367|   -5.525156|
|         147|   -5.948818|   -4.138363|   -4.110845|   -5.525459|
|         148|   -5.950153|   -4.139722|   -4.110909|   -5.525739|
|         149|   -5.951534|   -4.141242|   -4.110605|   -5.526061|
|         150|   -5.953149|   -4.142767|   -4.109961|   -5.526519|
|         151|   -5.955504|   -4.144573|   -4.109184|   -5.527164|
|         152|   -5.958415|   -4.146810|   -4.108711|   -5.527850|
|         153|   -5.962343|   -4.149208|   -4.108360|   -5.528394|
|         154|   -5.966435|   -4.151540|   -4.107739|   -5.528687|
|         155|   -5.970335|   -4.153733|   -4.106953|   -5.528711|
|         156|   -5.973731|   -4.156014|   -4.106340|   -5.528573|
|         157|   -5.976318|   -4.158250|   -4.105868|   -5.528305|
|         158|   -5.977867|   -4.160330|   -4.105587|   -5.527927|
|         159|   -5.979502|   -4.162226|   -4.105635|   -5.527483|
|         160|   -5.981330|   -4.164256|   -4.105907|   -5.526869|
|         161|   -5.983137|   -4.166307|   -4.106450|   -5.526067|
|         162|   -5.984934|   -4.168119|   -4.107156|   -5.525099|
|         163|   -5.986347|   -4.169660|   -4.108002|   -5.524040|
|         164|   -5.987286|   -4.170873|   -4.108849|   -5.522824|
|         165|   -5.988149|   -4.171784|   -4.109651|   -5.521436|
|         166|   -5.988837|   -4.172338|   -4.110174|   -5.519811|
|         167|   -5.989139|   -4.172459|   -4.110404|   -5.517877|
|         168|   -5.988993|   -4.172104|   -4.110279|   -5.515686|
|         169|   -5.988302|   -4.171123|   -4.109605|   -5.513238|
|         170|   -5.987215|   -4.169316|   -4.108121|   -5.510684|
|         171|   -5.985755|   -4.166660|   -4.106018|   -5.508058|
|         172|   -5.984128|   -4.163503|   -4.103578|   -5.505442|
|         173|   -5.982712|   -4.160013|   -4.100921|   -5.502815|
|         174|   -5.981674|   -4.156316|   -4.098247|   -5.500136|
|         175|   -5.980859|   -4.152653|   -4.095546|   -5.497389|
|         176|   -5.980693|   -4.148786|   -4.092811|   -5.494608|
|         177|   -5.980643|   -4.144528|   -4.090171|   -5.491786|
|         178|   -5.980539|   -4.139870|   -4.087452|   -5.488993|
|         179|   -5.980928|   -4.134925|   -4.084662|   -5.486240|
|         180|   -5.981480|   -4.129407|   -4.081818|   -5.483542|
|         181|   -5.982502|   -4.123727|   -4.078928|   -5.480919|
|         182|   -5.983814|   -4.118234|   -4.075831|   -5.478297|
|         183|   -5.985588|   -4.112840|   -4.072332|   -5.475669|
|         184|   -5.987479|   -4.107347|   -4.068498|   -5.472996|
|         185|   -5.989523|   -4.102033|   -4.064370|   -5.470355|
|         186|   -5.991549|   -4.097116|   -4.059943|   -5.467800|
|         187|   -5.993385|   -4.092404|   -4.055256|   -5.465360|
|         188|   -5.995347|   -4.087823|   -4.050439|   -5.463049|
|         189|   -5.997563|   -4.083688|   -4.045580|   -5.460814|
|         190|   -6.000285|   -4.080122|   -4.040837|   -5.458614|
|         191|   -6.003166|   -4.077053|   -4.036312|   -5.456441|
|         192|   -6.006130|   -4.074387|   -4.032119|   -5.454316|
|         193|   -6.009031|   -4.071990|   -4.028310|   -5.452269|
|         194|   -6.011903|   -4.069789|   -4.024852|   -5.450326|
|         195|   -6.014873|   -4.067773|   -4.021713|   -5.448519|
|         196|   -6.017446|   -4.065852|   -4.018957|   -5.446862|
|         197|   -6.020020|   -4.064081|   -4.016671|   -5.445367|
|         198|   -6.022421|   -4.062541|   -4.014907|   -5.444028|
|         199|   -6.024795|   -4.061119|   -4.013554|   -5.442830|
|         200|   -6.027154|   -4.059809|   -4.012520|   -5.441771|
|         201|   -6.029648|   -4.058664|   -4.011674|   -5.440879|
|         202|   -6.031958|   -4.057674|   -4.010908|   -5.440173|
|         203|   -6.033965|   -4.056694|   -4.010183|   -5.439681|
|         204|   -6.036000|   -4.055657|   -4.009565|   -5.439407|
|         205|   -6.038203|   -4.054749|   -4.009215|   -5.439347|
|         206|   -6.040528|   -4.054055|   -4.009127|   -5.439475|
|         207|   -6.043011|   -4.053477|   -4.009195|   -5.439802|
|         208|   -6.045509|   -4.053097|   -4.009329|   -5.440321|
|         209|   -6.047930|   -4.052821|   -4.009490|   -5.441029|
|         210|   -6.050427|   -4.052566|   -4.009590|   -5.441923|
|         211|   -6.052969|   -4.052254|   -4.009638|   -5.443001|
|         212|   -6.055489|   -4.051813|   -4.009721|   -5.444272|
|         213|   -6.058102|   -4.051224|   -4.009972|   -5.445751|
|         214|   -6.060819|   -4.050454|   -4.010411|   -5.447446|
|         215|   -6.063867|   -4.049526|   -4.011023|   -5.449364|
|         216|   -6.067131|   -4.048528|   -4.011813|   -5.451463|
|         217|   -6.070997|   -4.047446|   -4.012749|   -5.453701|
|         218|   -6.075374|   -4.046241|   -4.013813|   -5.456085|
|         219|   -6.080314|   -4.044935|   -4.014965|   -5.458615|
|         220|   -6.085562|   -4.043577|   -4.016201|   -5.461297|
|         221|   -6.091410|   -4.042069|   -4.017463|   -5.464108|
|         222|   -6.097792|   -4.040343|   -4.018801|   -5.467035|
|         223|   -6.104553|   -4.038424|   -4.020362|   -5.470067|
|         224|   -6.111601|   -4.036415|   -4.022230|   -5.473198|
|         225|   -6.118956|   -4.034389|   -4.024423|   -5.476424|
|         226|   -6.126656|   -4.032357|   -4.026958|   -5.479732|
|         227|   -6.134490|   -4.030288|   -4.029879|   -5.483127|
|         228|   -6.142384|   -4.028159|   -4.033213|   -5.486621|
|         229|   -6.150402|   -4.026046|   -4.036931|   -5.490198|
|         230|   -6.158433|   -4.023940|   -4.040993|   -5.493859|
|         231|   -6.166429|   -4.021884|   -4.045340|   -5.497601|
|         232|   -6.174432|   -4.019871|   -4.049969|   -5.501424|
|         233|   -6.182515|   -4.017895|   -4.054879|   -5.505340|
|         234|   -6.190849|   -4.015969|   -4.060031|   -5.509328|
|         235|   -6.199540|   -4.014149|   -4.065414|   -5.513378|
|         236|   -6.208699|   -4.012508|   -4.070990|   -5.517498|
|         237|   -6.218189|   -4.011074|   -4.076693|   -5.521654|
|         238|   -6.227782|   -4.009778|   -4.082519|   -5.525848|
|         239|   -6.237843|   -4.008634|   -4.088366|   -5.530084|
|         240|   -6.248262|   -4.007643|   -4.094162|   -5.534352|
|         241|   -6.258452|   -4.006709|   -4.099891|   -5.538640|
|         242|   -6.268493|   -4.005801|   -4.105460|   -5.542948|
|         243|   -6.278345|   -4.004909|   -4.110854|   -5.547278|
|         244|   -6.287550|   -4.004015|   -4.116028|   -5.551617|
|         245|   -6.296201|   -4.003124|   -4.120892|   -5.555947|
|         246|   -6.303917|   -4.002228|   -4.125463|   -5.560271|
|         247|   -6.310860|   -4.001348|   -4.129684|   -5.564577|
|         248|   -6.316758|   -4.000455|   -4.133546|   -5.568868|
|         249|   -6.321763|   -3.999543|   -4.136822|   -5.573136|
|         250|   -6.326290|   -3.998611|   -4.139625|   -5.577367|
|         251|   -6.330113|   -3.997657|   -4.142078|   -5.581565|
|         252|   -6.333303|   -3.996682|   -4.144197|   -5.585747|
|         253|   -6.336282|   -3.995616|   -4.146004|   -5.589910|
|         254|   -6.338654|   -3.994528|   -4.147484|   -5.594056|
|         255|   -6.341385|   -3.993370|   -4.148759|   -5.598215|
|         256|   -6.343892|   -3.992223|   -4.149896|   -5.602328|
|         257|   -6.346822|   -3.991010|   -4.150985|   -5.606456|
|         258|   -6.349879|   -3.989760|   -4.152054|   -5.610545|
|         259|   -6.353417|   -3.988532|   -4.153203|   -5.614600|
|         260|   -6.357289|   -3.987255|   -4.154552|   -5.618622|
|         261|   -6.361206|   -3.986001|   -4.156120|   -5.622564|
|         262|   -6.365195|   -3.984621|   -4.157941|   -5.626472|
|         263|   -6.369198|   -3.983198|   -4.159933|   -5.630267|
|         264|   -6.372560|   -3.981620|   -4.162083|   -5.634008|
|         265|   -6.375650|   -3.979959|   -4.164243|   -5.637626|
|         266|   -6.377743|   -3.978181|   -4.166334|   -5.641156|
|         267|   -6.379620|   -3.976414|   -4.168188|   -5.644577|
|         268|   -6.380184|   -3.974693|   -4.169773|   -5.647851|
|         269|   -6.380395|   -3.973077|   -4.170905|   -5.651044|
|         270|   -6.379392|   -3.971617|   -4.171390|   -5.654056|
|         271|   -6.378000|   -3.970274|   -4.171337|   -5.657004|
|         272|   -6.376338|   -3.969140|   -4.170793|   -5.659792|
|         273|   -6.373514|   -3.968208|   -4.169820|   -5.662448|
|         274|   -6.370772|   -3.967361|   -4.168588|   -5.665069|
|         275|   -6.367658|   -3.966684|   -4.166996|   -5.667588|
|         276|   -6.365395|   -3.966135|   -4.165288|   -5.670098|
|         277|   -6.362837|   -3.965890|   -4.163368|   -5.672542|
|         278|   -6.361991|   -3.965904|   -4.161475|   -5.675053|
|         279|   -6.361424|   -3.966311|   -4.159636|   -5.677495|
|         280|   -6.362219|   -3.966990|   -4.158104|   -5.679997|
|         281|   -6.363802|   -3.967974|   -4.156930|   -5.682478|
|         282|   -6.365398|   -3.969134|   -4.156343|   -5.684965|
|         283|   -6.367704|   -3.970493|   -4.156382|   -5.687539|
|         284|   -6.369962|   -3.972072|   -4.157089|   -5.690123|
|         285|   -6.371692|   -3.973785|   -4.158523|   -5.692789|
|         286|   -6.373333|   -3.975599|   -4.160608|   -5.695570|
|         287|   -6.374590|   -3.977498|   -4.163333|   -5.698435|
|         288|   -6.374853|   -3.979426|   -4.166672|   -5.701378|
|         289|   -6.374081|   -3.981331|   -4.170568|   -5.704411|
|         290|   -6.372293|   -3.983150|   -4.174887|   -5.707529|
|         291|   -6.369427|   -3.984806|   -4.179400|   -5.710709|
|         292|   -6.365554|   -3.986203|   -4.183721|   -5.713901|
|         293|   -6.360766|   -3.987251|   -4.187460|   -5.717066|
|         294|   -6.354967|   -3.987884|   -4.190157|   -5.720145|
|         295|   -6.348073|   -3.988025|   -4.191419|   -5.723068|
|         296|   -6.340605|   -3.987670|   -4.190896|   -5.725834|
|         297|   -6.332746|   -3.986897|   -4.188293|   -5.728373|
|         298|   -6.324135|   -3.985830|   -4.183605|   -5.730581|
|         299|   -6.314852|   -3.984542|   -4.177039|   -5.732454|
|         300|   -6.305596|   -3.983207|   -4.168869|   -5.734036|
|         301|   -6.296486|   -3.981986|   -4.159440|   -5.735307|
|         302|   -6.287312|   -3.981015|   -4.149051|   -5.736267|
|         303|   -6.278304|   -3.980460|   -4.138057|   -5.736923|
|         304|   -6.269479|   -3.980408|   -4.126840|   -5.737317|
|         305|   -6.260973|   -3.980874|   -4.115721|   -5.737486|
|         306|   -6.252781|   -3.981915|   -4.104962|   -5.737454|
|         307|   -6.244737|   -3.983590|   -4.094995|   -5.737252|
|         308|   -6.236741|   -3.985928|   -4.086233|   -5.736926|
|         309|   -6.228875|   -3.988941|   -4.078832|   -5.736540|
|         310|   -6.221015|   -3.992592|   -4.072873|   -5.736079|
|         311|   -6.212893|   -3.996807|   -4.068371|   -5.735570|
|         312|   -6.204475|   -4.001487|   -4.065260|   -5.735059|
|         313|   -6.195895|   -4.006555|   -4.063396|   -5.734524|
|         314|   -6.186853|   -4.011981|   -4.062624|   -5.734046|
|         315|   -6.177376|   -4.017775|   -4.062830|   -5.733668|
|         316|   -6.167386|   -4.023996|   -4.064000|   -5.733551|
|         317|   -6.157045|   -4.030655|   -4.066224|   -5.733820|
|         318|   -6.146439|   -4.037822|   -4.069672|   -5.734652|
|         319|   -6.135998|   -4.045504|   -4.074290|   -5.736215|
|         320|   -6.126059|   -4.053692|   -4.079943|   -5.738625|
|         321|   -6.116708|   -4.062345|   -4.086533|   -5.741911|
|         322|   -6.109430|   -4.071375|   -4.092530|   -5.746381|
|         323|   -6.104916|   -4.080757|   -4.098536|   -5.751513|
|         324|   -6.101100|   -4.090136|   -4.104857|   -5.757213|
|         325|   -6.097142|   -4.099261|   -4.111426|   -5.763413|
|         326|   -6.092807|   -4.108002|   -4.118090|   -5.770047|
|         327|   -6.088175|   -4.116205|   -4.124726|   -5.777024|
|         328|   -6.083474|   -4.123785|   -4.131179|   -5.784200|
|         329|   -6.078800|   -4.130690|   -4.137269|   -5.791448|
|         330|   -6.074150|   -4.136883|   -4.142765|   -5.798652|
|         331|   -6.069356|   -4.142394|   -4.147456|   -5.805715|
|         332|   -6.064394|   -4.147312|   -4.151216|   -5.812572|
|         333|   -6.059259|   -4.151783|   -4.154003|   -5.819178|
|         334|   -6.053979|   -4.155999|   -4.155884|   -5.825515|
|         335|   -6.048626|   -4.160108|   -4.157018|   -5.831606|
|         336|   -6.043346|   -4.164301|   -4.157574|   -5.837472|
|         337|   -6.038241|   -4.168690|   -4.157739|   -5.843137|
|         338|   -6.033365|   -4.173362|   -4.157685|   -5.848645|
|         339|   -6.028768|   -4.178397|   -4.157582|   -5.854050|
|         340|   -6.024579|   -4.183868|   -4.157632|   -5.859414|
|         341|   -6.020858|   -4.189825|   -4.157997|   -5.864724|
|         342|   -6.017636|   -4.196230|   -4.158808|   -5.869949|
|         343|   -6.014899|   -4.202993|   -4.160199|   -5.875030|
|         344|   -6.012595|   -4.210036|   -4.162224|   -5.879859|
|         345|   -6.010593|   -4.217200|   -4.164897|   -5.884312|
|         346|   -6.008774|   -4.224268|   -4.168155|   -5.888255|
|         347|   -6.007142|   -4.231096|   -4.169402|   -5.891629|
|         348|   -6.005793|   -4.237551|   -4.170033|   -5.893878|
|         349|   -6.004612|   -4.243584|   -4.170413|   -5.894166|
|         350|   -6.003433|   -4.249257|   -4.170518|   -5.892600|
|         351|   -6.002064|   -4.254598|   -4.170312|   -5.889782|
|         352|   -6.000436|   -4.259595|   -4.169814|   -5.887048|
|         353|   -5.998616|   -4.264268|   -4.169127|   -5.883834|
|         354|   -5.996697|   -4.268629|   -4.168320|   -5.880077|
|         355|   -5.994740|   -4.272632|   -4.167448|   -5.875832|
|         356|   -5.992785|   -4.276247|   -4.166525|   -5.871211|
|         357|   -5.990888|   -4.279553|   -4.165586|   -5.866358|
|         358|   -5.989103|   -4.282689|   -4.164722|   -5.861473|
|         359|   -5.987429|   -4.285715|   -4.164018|   -5.856605|
|         360|   -5.985873|   -4.288642|   -4.163544|   -5.851853|
|         361|   -5.984415|   -4.291425|   -4.163309|   -5.847310|
|         362|   -5.983041|   -4.293971|   -4.163276|   -5.843010|
|         363|   -5.981719|   -4.296173|   -4.163388|   -5.839006|
|         364|   -5.980437|   -4.297988|   -4.163573|   -5.835318|
|         365|   -5.979181|   -4.299447|   -4.163766|   -5.831959|
|         366|   -5.977933|   -4.300581|   -4.163908|   -5.828917|
|         367|   -5.976760|   -4.301426|   -4.164057|   -5.826153|
|         368|   -5.975627|   -4.302017|   -4.164158|   -5.823666|
|         369|   -5.974451|   -4.302382|   -4.164077|   -5.821455|
|         370|   -5.973262|   -4.302602|   -4.163829|   -5.819571|
|         371|   -5.972214|   -4.302743|   -4.163659|   -5.818123|
|         372|   -5.971290|   -4.302855|   -4.163495|   -5.817190|
|         373|   -5.970528|   -4.302994|   -4.163327|   -5.816857|
|         374|   -5.970022|   -4.303239|   -4.163243|   -5.817150|
|         375|   -5.969816|   -4.303639|   -4.163305|   -5.818117|
|         376|   -5.969991|   -4.304235|   -4.163640|   -5.819668|
|         377|   -5.970462|   -4.304987|   -4.164173|   -5.821718|
|         378|   -5.971313|   -4.305807|   -4.165099|   -5.824116|
|         379|   -5.972430|   -4.306569|   -4.166308|   -5.826763|
|         380|   -5.973823|   -4.307172|   -4.167881|   -5.829563|
|         381|   -5.975474|   -4.307514|   -4.169858|   -5.832417|
|         382|   -5.977332|   -4.307512|   -4.172204|   -5.835239|
|         383|   -5.979352|   -4.307094|   -4.174857|   -5.837945|
|         384|   -5.981531|   -4.306202|   -4.177812|   -5.840507|
|         385|   -5.983820|   -4.304782|   -4.180973|   -5.842932|
|         386|   -5.986254|   -4.302829|   -4.184391|   -5.845204|
|         387|   -5.988715|   -4.300410|   -4.187811|   -5.847292|
|         388|   -5.991268|   -4.297549|   -4.191257|   -5.849139|
|         389|   -5.993959|   -4.294306|   -4.194730|   -5.850683|
|         390|   -5.996752|   -4.290762|   -4.198151|   -5.851871|
|         391|   -5.999742|   -4.287026|   -4.201755|   -5.852618|
|         392|   -6.002756|   -4.283135|   -4.205270|   -5.852862|
|         393|   -6.005825|   -4.279216|   -4.208776|   -5.852532|
|         394|   -6.008924|   -4.275397|   -4.212287|   -5.851605|
|         395|   -6.012003|   -4.271842|   -4.215753|   -5.850062|
|         396|   -6.015030|   -4.268669|   -4.219064|   -5.847927|
|         397|   -6.018010|   -4.265925|   -4.222155|   -5.845301|
|         398|   -6.021005|   -4.263672|   -4.223268|   -5.842411|
|         399|   -6.024119|   -4.261782|   -4.220904|   -5.839469|
|         400|   -6.027319|   -4.260047|   -4.218206|   -5.836506|
|         401|   -6.030509|   -4.258056|   -4.215797|   -5.833573|
|         402|   -6.033638|   -4.255594|   -4.213671|   -5.830676|
|         403|   -6.036696|   -4.252745|   -4.212336|   -5.827769|
|         404|   -6.039680|   -4.249706|   -4.211731|   -5.824835|
|         405|   -6.042599|   -4.246726|   -4.211539|   -5.821836|
|         406|   -6.045410|   -4.243992|   -4.211632|   -5.818748|
|         407|   -6.048132|   -4.241380|   -4.212236|   -5.815612|
|         408|   -6.050767|   -4.239009|   -4.213457|   -5.812361|
|         409|   -6.053419|   -4.237050|   -4.215894|   -5.809005|
|         410|   -6.056087|   -4.235492|   -4.219116|   -5.805574|
|         411|   -6.059034|   -4.234322|   -4.223585|   -5.801963|
|         412|   -6.062037|   -4.233289|   -4.228415|   -5.798231|
|         413|   -6.065389|   -4.232034|   -4.233855|   -5.794224|
|         414|   -6.068851|   -4.230439|   -4.239602|   -5.790001|
|         415|   -6.072060|   -4.228375|   -4.245398|   -5.785531|
|         416|   -6.075072|   -4.225797|   -4.251041|   -5.780798|
|         417|   -6.077861|   -4.222765|   -4.256380|   -5.775697|
|         418|   -6.080415|   -4.219343|   -4.261252|   -5.770140|
|         419|   -6.082504|   -4.215386|   -4.265080|   -5.764311|
|         420|   -6.084697|   -4.210855|   -4.267986|   -5.758187|
|         421|   -6.086488|   -4.205935|   -4.270702|   -5.751751|
|         422|   -6.087945|   -4.200566|   -4.273202|   -5.745152|
|         423|   -6.088811|   -4.194826|   -4.275393|   -5.738461|
|         424|   -6.089155|   -4.188572|   -4.276463|   -5.731899|
|         425|   -6.089085|   -4.181861|   -4.276751|   -5.725579|
|         426|   -6.088797|   -4.174817|   -4.276669|   -5.719626|
|         427|   -6.088321|   -4.167539|   -4.276172|   -5.714196|
|         428|   -6.087690|   -4.160089|   -4.275247|   -5.709379|
|         429|   -6.087035|   -4.152539|   -4.273907|   -5.705184|
|         430|   -6.086334|   -4.144986|   -4.272186|   -5.701606|
|         431|   -6.085771|   -4.137519|   -4.270101|   -5.698565|
|         432|   -6.085584|   -4.130212|   -4.267595|   -5.695972|
|         433|   -6.085530|   -4.123150|   -4.264573|   -5.693576|
|         434|   -6.085565|   -4.116336|   -4.260862|   -5.691359|
|         435|   -6.086063|   -4.109834|   -4.256355|   -5.689166|
|         436|   -6.086779|   -4.103710|   -4.251158|   -5.686938|
|         437|   -6.087821|   -4.098071|   -4.245347|   -5.684597|
|         438|   -6.089206|   -4.092928|   -4.239099|   -5.682119|
|         439|   -6.090720|   -4.088258|   -4.232499|   -5.679595|
|         440|   -6.092225|   -4.084007|   -4.225605|   -5.677058|
|         441|   -6.093539|   -4.080123|   -4.218501|   -5.674603|
|         442|   -6.094624|   -4.076550|   -4.211036|   -5.672437|
|         443|   -6.096391|   -4.073343|   -4.203308|   -5.670580|
|         444|   -6.098505|   -4.070582|   -4.195801|   -5.669116|
|         445|   -6.100770|   -4.068198|   -4.188754|   -5.668116|
|         446|   -6.103297|   -4.066076|   -4.182146|   -5.667556|
|         447|   -6.105993|   -4.064118|   -4.175841|   -5.667415|
|         448|   -6.108712|   -4.062134|   -4.169911|   -5.667696|
|         449|   -6.111510|   -4.060028|   -4.163954|   -5.668566|
|         450|   -6.115503|   -4.057870|   -4.158384|   -5.669715|
|         451|   -6.119208|   -4.055687|   -4.153572|   -5.671105|
|         452|   -6.122125|   -4.053466|   -4.149572|   -5.672734|
|         453|   -6.124348|   -4.051243|   -4.146331|   -5.674705|
|         454|   -6.126844|   -4.049324|   -4.144327|   -5.676926|
|         455|   -6.129430|   -4.047948|   -4.144552|   -5.679444|
|         456|   -6.134204|   -4.047425|   -4.148060|   -5.682185|
|         457|   -6.142624|   -4.047655|   -4.154591|   -5.685162|
|         458|   -6.155014|   -4.049538|   -4.164784|   -5.688035|
|         459|   -6.170871|   -4.053550|   -4.178150|   -5.690692|
|         460|   -6.189544|   -4.058550|   -4.192737|   -5.693053|
|         461|   -6.207342|   -4.062928|   -4.206313|   -5.695072|
|         462|   -6.221091|   -4.066287|   -4.218184|   -5.696738|
|         463|   -6.231942|   -4.068777|   -4.228054|   -5.698113|
|         464|   -6.241490|   -4.070614|   -4.235926|   -5.699118|
|         465|   -6.249723|   -4.072034|   -4.242441|   -5.699752|
|         466|   -6.256506|   -4.073222|   -4.248275|   -5.700042|
|         467|   -6.262453|   -4.074324|   -4.253904|   -5.699998|
|         468|   -6.268146|   -4.075509|   -4.259792|   -5.699558|
|         469|   -6.273473|   -4.076771|   -4.266090|   -5.698723|
|         470|   -6.278353|   -4.078088|   -4.272519|   -5.697506|
|         471|   -6.282569|   -4.079403|   -4.278692|   -5.695931|
|         472|   -6.285887|   -4.080647|   -4.284194|   -5.694029|
|         473|   -6.288133|   -4.081733|   -4.288700|   -5.691843|
|         474|   -6.288981|   -4.082562|   -4.292125|   -5.689412|
|         475|   -6.288399|   -4.083019|   -4.294235|   -5.686797|
|         476|   -6.286963|   -4.082991|   -4.295049|   -5.684018|
|         477|   -6.284677|   -4.082477|   -4.294703|   -5.681039|
|         478|   -6.280991|   -4.081450|   -4.293358|   -5.677836|
|         479|   -6.276391|   -4.079942|   -4.290824|   -5.674496|
|         480|   -6.271204|   -4.078298|   -4.287489|   -5.671065|
|         481|   -6.265501|   -4.077154|   -4.282976|   -5.667664|
|         482|   -6.259437|   -4.076872|   -4.276177|   -5.664421|
|         483|   -6.250689|   -4.076809|   -4.269944|   -5.661443|
|         484|   -6.242928|   -4.076316|   -4.267432|   -5.658920|
|         485|   -6.235830|   -4.076039|   -4.267014|   -5.657004|
|         486|   -6.232214|   -4.077398|   -4.267764|   -5.655548|
|         487|   -6.230504|   -4.081045|   -4.269441|   -5.654554|
|         488|   -6.228032|   -4.085480|   -4.271733|   -5.653964|
|         489|   -6.226576|   -4.089538|   -4.273766|   -5.653595|
|         490|   -6.224080|   -4.093574|   -4.275362|   -5.653298|
|         491|   -6.219889|   -4.097991|   -4.276222|   -5.653002|
|         492|   -6.213933|   -4.102468|   -4.275693|   -5.652826|
|         493|   -6.206369|   -4.106508|   -4.273930|   -5.652974|
|         494|   -6.198550|   -4.109849|   -4.270864|   -5.653537|
|         495|   -6.191636|   -4.112936|   -4.266830|   -5.654357|
|         496|   -6.185537|   -4.116078|   -4.262746|   -5.655128|
|         497|   -6.179766|   -4.119388|   -4.258972|   -5.655653|
|         498|   -6.174641|   -4.122447|   -4.252627|   -5.655991|
|         499|   -6.171513|   -4.125085|   -4.245900|   -5.656013|
|         500|   -6.169367|   -4.126854|   -4.239376|   -5.655957|
+-----------------------------------------------------------------------+
|        File Writing Summary       |              Filename             |
+-----------------------------------------------------------------------+
|SU2 restart                        |restart_venturi_mixturedensity_30kW_fine_test.dat|
|                                   |                     (813.111 MB/s)|
|Paraview                           |flow_venturi_mixturedensity_30kW_fine_test_00000500.vtu|
|                                   |                     (6.57972 MB/s)|
|Paraview surface                   |surface_flow_venturi_mixturedensity_30kW_fine_test.vtu|
|                                   |                     (1.78127 MB/s)|
+-----------------------------------------------------------------------+
+----------------------------------------------------------------+
|  Inner_Iter|      rms[P]|      rms[U]|      rms[V]|      rms[c]|
+----------------------------------------------------------------+
|         501|   -6.166806|   -4.127860|   -4.232730|   -5.655969|
|         502|   -6.164040|   -4.128388|   -4.225875|   -5.656088|
|         503|   -6.161697|   -4.128733|   -4.218897|   -5.656307|
|         504|   -6.159981|   -4.129203|   -4.212449|   -5.656600|
|         505|   -6.158751|   -4.130042|   -4.206714|   -5.656948|
|         506|   -6.157677|   -4.131453|   -4.201425|   -5.657334|
|         507|   -6.156548|   -4.133525|   -4.196283|   -5.657740|
|         508|   -6.155361|   -4.136257|   -4.191066|   -5.658145|
|         509|   -6.154235|   -4.139569|   -4.185659|   -5.658530|
|         510|   -6.153272|   -4.143313|   -4.180077|   -5.658883|
|         511|   -6.152521|   -4.147315|   -4.174430|   -5.659204|
|         512|   -6.151949|   -4.151333|   -4.168872|   -5.659501|
|         513|   -6.151506|   -4.155121|   -4.163556|   -5.659785|
|         514|   -6.151108|   -4.158434|   -4.158599|   -5.660069|
|         515|   -6.150597|   -4.161072|   -4.154062|   -5.660363|
|         516|   -6.149742|   -4.162916|   -4.149983|   -5.660677|
|         517|   -6.148394|   -4.163953|   -4.146451|   -5.661022|
|         518|   -6.146392|   -4.164246|   -4.143553|   -5.661411|
|         519|   -6.143700|   -4.163945|   -4.141336|   -5.661852|
|         520|   -6.140365|   -4.163243|   -4.139828|   -5.662352|
|         521|   -6.136513|   -4.162309|   -4.138953|   -5.662915|
|         522|   -6.132406|   -4.161252|   -4.138576|   -5.663544|
|         523|   -6.128439|   -4.160095|   -4.138568|   -5.664241|
|         524|   -6.125114|   -4.158903|   -4.138770|   -5.665003|
|         525|   -6.122950|   -4.158127|   -4.139017|   -5.665831|
|         526|   -6.122272|   -4.158853|   -4.139153|   -5.666713|
|         527|   -6.123026|   -4.162368|   -4.139054|   -5.667654|
|         528|   -6.124663|   -4.168845|   -4.138771|   -5.668648|
|         529|   -6.126373|   -4.176958|   -4.138889|   -5.669699|
|         530|   -6.127784|   -4.185916|   -4.139770|   -5.670806|
|         531|   -6.128762|   -4.194913|   -4.141278|   -5.671953|
|         532|   -6.129331|   -4.203049|   -4.143220|   -5.673131|
|         533|   -6.129598|   -4.209774|   -4.145375|   -5.674335|
|         534|   -6.129685|   -4.215185|   -4.147451|   -5.675559|
|         535|   -6.129690|   -4.219710|   -4.149199|   -5.676799|
|         536|   -6.129688|   -4.223718|   -4.150505|   -5.678045|
|         537|   -6.129720|   -4.227422|   -4.151386|   -5.679287|
|         538|   -6.129802|   -4.230904|   -4.151931|   -5.680517|
|         539|   -6.129937|   -4.234224|   -4.152232|   -5.681725|
|         540|   -6.130127|   -4.237398|   -4.152350|   -5.682904|
|         541|   -6.130376|   -4.240402|   -4.152350|   -5.684048|
|         542|   -6.130697|   -4.243196|   -4.152301|   -5.685158|
|         543|   -6.131102|   -4.245745|   -4.152243|   -5.686234|
|         544|   -6.131602|   -4.248022|   -4.152206|   -5.687283|
|         545|   -6.132207|   -4.249993|   -4.152210|   -5.688316|
|         546|   -6.132925|   -4.251620|   -4.152268|   -5.689344|
|         547|   -6.133765|   -4.252868|   -4.152392|   -5.690382|
|         548|   -6.134732|   -4.253713|   -4.152606|   -5.691443|
|         549|   -6.135830|   -4.254145|   -4.152926|   -5.692539|
|         550|   -6.137062|   -4.254175|   -4.153364|   -5.693680|
|         551|   -6.138431|   -4.253823|   -4.153933|   -5.694871|
|         552|   -6.139940|   -4.253119|   -4.154640|   -5.696114|
|         553|   -6.141592|   -4.252094|   -4.155485|   -5.697407|
|         554|   -6.143386|   -4.250780|   -4.156468|   -5.698745|
|         555|   -6.145322|   -4.249211|   -4.157586|   -5.700121|
|         556|   -6.147395|   -4.247421|   -4.158833|   -5.701529|
|         557|   -6.149595|   -4.245443|   -4.160203|   -5.702962|
|         558|   -6.151911|   -4.243304|   -4.161687|   -5.704419|
|         559|   -6.154329|   -4.241028|   -4.163280|   -5.705900|
|         560|   -6.156836|   -4.238630|   -4.164970|   -5.707408|
|         561|   -6.159411|   -4.236121|   -4.166741|   -5.708954|
|         562|   -6.162039|   -4.233501|   -4.168580|   -5.710545|
|         563|   -6.164712|   -4.230763|   -4.170475|   -5.712194|
|         564|   -6.167423|   -4.227896|   -4.172418|   -5.713912|
|         565|   -6.170174|   -4.224892|   -4.174403|   -5.715707|
|         566|   -6.172969|   -4.221751|   -4.176429|   -5.717587|
|         567|   -6.175813|   -4.218481|   -4.178499|   -5.719556|
|         568|   -6.178712|   -4.215100|   -4.180608|   -5.721616|
|         569|   -6.181676|   -4.211629|   -4.182744|   -5.723766|
|         570|   -6.184716|   -4.208093|   -4.184939|   -5.726005|
|         571|   -6.187845|   -4.204509|   -4.187202|   -5.728329|
|         572|   -6.191075|   -4.200893|   -4.189540|   -5.730734|
|         573|   -6.194413|   -4.197255|   -4.191957|   -5.733218|
|         574|   -6.197866|   -4.193605|   -4.194459|   -5.735777|
|         575|   -6.201439|   -4.189954|   -4.197059|   -5.738409|
|         576|   -6.205139|   -4.186310|   -4.199760|   -5.741111|
|         577|   -6.208957|   -4.182680|   -4.202558|   -5.743882|
|         578|   -6.212891|   -4.179068|   -4.205451|   -5.746722|
|         579|   -6.216943|   -4.175474|   -4.208452|   -5.749630|
|         580|   -6.221120|   -4.171898|   -4.211577|   -5.752604|
|         581|   -6.225430|   -4.168339|   -4.214837|   -5.755644|
|         582|   -6.229881|   -4.164804|   -4.218246|   -5.758749|
|         583|   -6.234482|   -4.161302|   -4.221821|   -5.761919|
|         584|   -6.239244|   -4.157842|   -4.225578|   -5.765152|
|         585|   -6.244184|   -4.154432|   -4.229543|   -5.768446|
|         586|   -6.249322|   -4.151074|   -4.233742|   -5.771802|
|         587|   -6.254667|   -4.147767|   -4.238176|   -5.775216|
|         588|   -6.260249|   -4.144496|   -4.242329|   -5.778686|
|         589|   -6.266041|   -4.141265|   -4.246718|   -5.782207|
|         590|   -6.272081|   -4.138081|   -4.251400|   -5.785778|
|         591|   -6.278389|   -4.134954|   -4.256400|   -5.789400|
|         592|   -6.284978|   -4.131893|   -4.261735|   -5.793071|
|         593|   -6.291868|   -4.128904|   -4.267425|   -5.796791|
|         594|   -6.299068|   -4.125991|   -4.273475|   -5.800559|
|         595|   -6.306579|   -4.123160|   -4.279887|   -5.804375|
|         596|   -6.314411|   -4.120418|   -4.286682|   -5.808238|
|         597|   -6.322575|   -4.117773|   -4.293884|   -5.812149|
|         598|   -6.331081|   -4.115236|   -4.301508|   -5.816108|
|         599|   -6.339934|   -4.112816|   -4.309558|   -5.820113|
|         600|   -6.349139|   -4.110518|   -4.318034|   -5.824165|
|         601|   -6.358697|   -4.108347|   -4.326934|   -5.828263|
|         602|   -6.368606|   -4.106307|   -4.336249|   -5.832407|
|         603|   -6.378854|   -4.104404|   -4.345962|   -5.836597|
|         604|   -6.389425|   -4.102644|   -4.356056|   -5.840833|
|         605|   -6.400320|   -4.101031|   -4.366532|   -5.845115|
|         606|   -6.411533|   -4.099569|   -4.377381|   -5.849443|
|         607|   -6.423013|   -4.098257|   -4.388512|   -5.853819|
|         608|   -6.434724|   -4.097094|   -4.399865|   -5.858243|
|         609|   -6.446630|   -4.096078|   -4.411378|   -5.862718|
|         610|   -6.458697|   -4.095204|   -4.422990|   -5.867244|
|         611|   -6.470854|   -4.094467|   -4.434580|   -5.871823|
|         612|   -6.483027|   -4.093866|   -4.446022|   -5.876457|
|         613|   -6.495141|   -4.093396|   -4.457208|   -5.881147|
|         614|   -6.507098|   -4.093056|   -4.468007|   -5.885895|
|         615|   -6.518785|   -4.092843|   -4.478298|   -5.890702|
|         616|   -6.530081|   -4.092755|   -4.487973|   -5.895568|
|         617|   -6.540864|   -4.092787|   -4.496935|   -5.900494|
|         618|   -6.551014|   -4.092934|   -4.505094|   -5.905483|
|         619|   -6.560413|   -4.093192|   -4.512365|   -5.910535|
|         620|   -6.568955|   -4.093556|   -4.518675|   -5.915651|
|         621|   -6.576551|   -4.094024|   -4.523973|   -5.920833|
|         622|   -6.583133|   -4.094593|   -4.528232|   -5.926082|
|         623|   -6.588662|   -4.095264|   -4.531459|   -5.931397|
|         624|   -6.593126|   -4.096032|   -4.533687|   -5.936780|
|         625|   -6.596542|   -4.096894|   -4.534984|   -5.942229|
|         626|   -6.598952|   -4.097844|   -4.535456|   -5.947745|
|         627|   -6.600419|   -4.098873|   -4.535212|   -5.953328|
|         628|   -6.601010|   -4.099973|   -4.534347|   -5.958978|
|         629|   -6.600809|   -4.101135|   -4.532939|   -5.964693|
|         630|   -6.599905|   -4.102349|   -4.531060|   -5.970472|
|         631|   -6.598396|   -4.103605|   -4.528768|   -5.976315|
|         632|   -6.596379|   -4.104896|   -4.526117|   -5.982219|
|         633|   -6.593947|   -4.106215|   -4.523169|   -5.988182|
|         634|   -6.591192|   -4.107562|   -4.520010|   -5.994204|
|         635|   -6.588183|   -4.108940|   -4.516730|   -6.000283|
|         636|   -6.584976|   -4.110354|   -4.513413|   -6.006417|
|         637|   -6.581622|   -4.111808|   -4.510116|   -6.012605|
|         638|   -6.578130|   -4.113307|   -4.506897|   -6.018846|
|         639|   -6.574511|   -4.114859|   -4.503774|   -6.025140|
|         640|   -6.570763|   -4.116470|   -4.500738|   -6.031485|
|         641|   -6.566870|   -4.118147|   -4.497769|   -6.037882|
|         642|   -6.562807|   -4.119897|   -4.494834|   -6.044331|
|         643|   -6.558544|   -4.121735|   -4.491900|   -6.050832|
|         644|   -6.554041|   -4.123670|   -4.488943|   -6.057385|
|         645|   -6.549260|   -4.125715|   -4.485946|   -6.063991|
|         646|   -6.544153|   -4.127876|   -4.482885|   -6.070654|
|         647|   -6.538694|   -4.130155|   -4.479756|   -6.077374|
|         648|   -6.532793|   -4.132553|   -4.476489|   -6.084155|
|         649|   -6.526430|   -4.135072|   -4.473078|   -6.091002|
|         650|   -6.519601|   -4.137710|   -4.469531|   -6.097918|
|         651|   -6.512312|   -4.140471|   -4.465842|   -6.104906|
|         652|   -6.504577|   -4.143358|   -4.462001|   -6.111968|
|         653|   -6.496401|   -4.146375|   -4.457987|   -6.119107|
|         654|   -6.487818|   -4.149524|   -4.453798|   -6.126323|
|         655|   -6.478926|   -4.152801|   -4.449504|   -6.133616|
|         656|   -6.469768|   -4.156203|   -4.445102|   -6.140982|
|         657|   -6.460341|   -4.159727|   -4.440579|   -6.148417|
|         658|   -6.450689|   -4.163372|   -4.435981|   -6.155915|
|         659|   -6.440863|   -4.167135|   -4.431377|   -6.163467|
|         660|   -6.430908|   -4.171016|   -4.426812|   -6.171060|
|         661|   -6.420871|   -4.175010|   -4.422310|   -6.178677|
|         662|   -6.410797|   -4.179112|   -4.417881|   -6.186299|
|         663|   -6.400723|   -4.183313|   -4.413533|   -6.193901|
|         664|   -6.390691|   -4.187603|   -4.409276|   -6.201452|
|         665|   -6.380741|   -4.191973|   -4.405141|   -6.208920|
|         666|   -6.370910|   -4.196410|   -4.401158|   -6.216268|
|         667|   -6.361208|   -4.200905|   -4.397346|   -6.223455|
|         668|   -6.351651|   -4.205448|   -4.393742|   -6.230438|
|         669|   -6.342283|   -4.210024|   -4.390420|   -6.237173|
|         670|   -6.333102|   -4.214629|   -4.387378|   -6.243614|
|         671|   -6.324081|   -4.219251|   -4.384603|   -6.249716|
|         672|   -6.315209|   -4.223895|   -4.382078|   -6.255430|
|         673|   -6.306486|   -4.228567|   -4.379832|   -6.260706|
|         674|   -6.297930|   -4.233252|   -4.377900|   -6.265497|
|         675|   -6.289528|   -4.237928|   -4.376272|   -6.269758|
|         676|   -6.281315|   -4.242556|   -4.374628|   -6.273449|
|         677|   -6.273284|   -4.247128|   -4.373144|   -6.276528|
|         678|   -6.265428|   -4.251667|   -4.371933|   -6.278959|
|         679|   -6.257719|   -4.256183|   -4.371004|   -6.280718|
|         680|   -6.250143|   -4.260679|   -4.370299|   -6.281790|
|         681|   -6.242681|   -4.265156|   -4.369828|   -6.282164|
|         682|   -6.235309|   -4.269601|   -4.369675|   -6.281831|
|         683|   -6.228012|   -4.273996|   -4.369842|   -6.280789|
|         684|   -6.220774|   -4.278323|   -4.370334|   -6.279046|
|         685|   -6.213583|   -4.282559|   -4.371174|   -6.276611|
|         686|   -6.206425|   -4.286699|   -4.372395|   -6.273496|
|         687|   -6.199297|   -4.290743|   -4.374047|   -6.269724|
|         688|   -6.192223|   -4.294693|   -4.375688|   -6.265371|
|         689|   -6.185179|   -4.298572|   -4.377165|   -6.260512|
|         690|   -6.178137|   -4.302426|   -4.379010|   -6.255182|
|         691|   -6.171115|   -4.306301|   -4.381303|   -6.249442|
|         692|   -6.164103|   -4.310250|   -4.384075|   -6.243378|
|         693|   -6.157077|   -4.314344|   -4.387366|   -6.237104|
|         694|   -6.150031|   -4.318664|   -4.391235|   -6.230765|
|         695|   -6.142957|   -4.323273|   -4.395761|   -6.224516|
|         696|   -6.136172|   -4.328149|   -4.396645|   -6.218932|
|         697|   -6.129472|   -4.333428|   -4.394218|   -6.214195|
|         698|   -6.122927|   -4.339174|   -4.391571|   -6.210115|
|         699|   -6.116807|   -4.345288|   -4.389222|   -6.206561|
|         700|   -6.111049|   -4.351682|   -4.387182|   -6.203376|
|         701|   -6.105539|   -4.358256|   -4.385388|   -6.200425|
|         702|   -6.100378|   -4.364823|   -4.380007|   -6.197854|
|         703|   -6.095246|   -4.371404|   -4.372533|   -6.195469|
|         704|   -6.090306|   -4.377993|   -4.365205|   -6.193040|
|         705|   -6.085720|   -4.384549|   -4.358385|   -6.190445|
|         706|   -6.081435|   -4.391066|   -4.352038|   -6.187593|
|         707|   -6.077387|   -4.397556|   -4.346067|   -6.184448|
|         708|   -6.073545|   -4.404032|   -4.340418|   -6.181032|
|         709|   -6.069911|   -4.410493|   -4.335056|   -6.177344|
|         710|   -6.066450|   -4.416929|   -4.329891|   -6.173437|
|         711|   -6.063348|   -4.423359|   -4.325189|   -6.169292|
|         712|   -6.060495|   -4.429728|   -4.320735|   -6.164883|
|         713|   -6.057898|   -4.435995|   -4.316510|   -6.160181|
|         714|   -6.055586|   -4.442118|   -4.312566|   -6.155139|
|         715|   -6.053553|   -4.448043|   -4.308884|   -6.149808|
|         716|   -6.051770|   -4.453715|   -4.305416|   -6.144230|
|         717|   -6.050287|   -4.459086|   -4.302267|   -6.138468|
|         718|   -6.048948|   -4.464017|   -4.299140|   -6.132566|
|         719|   -6.047931|   -4.468525|   -4.296380|   -6.126537|
|         720|   -6.047089|   -4.472540|   -4.293757|   -6.120358|
|         721|   -6.046421|   -4.476027|   -4.291269|   -6.114040|
|         722|   -6.045928|   -4.478943|   -4.288923|   -6.107720|
|         723|   -6.045735|   -4.481306|   -4.286979|   -6.101505|
|         724|   -6.045613|   -4.483002|   -4.285005|   -6.095403|
|         725|   -6.045691|   -4.484017|   -4.283222|   -6.089332|
|         726|   -6.045868|   -4.484247|   -4.281425|   -6.083273|
|         727|   -6.046203|   -4.483691|   -4.279747|   -6.077316|
|         728|   -6.046697|   -4.482421|   -4.278245|   -6.071511|
|         729|   -6.047269|   -4.480563|   -4.276816|   -6.065821|
|         730|   -6.047937|   -4.478265|   -4.275536|   -6.060197|
|         731|   -6.048707|   -4.475624|   -4.274433|   -6.054632|
|         732|   -6.049536|   -4.472693|   -4.273434|   -6.049149|
|         733|   -6.050407|   -4.469548|   -4.272496|   -6.043743|
|         734|   -6.051347|   -4.466354|   -4.271657|   -6.038353|
|         735|   -6.052403|   -4.463296|   -4.271016|   -6.032891|
|         736|   -6.053538|   -4.460404|   -4.270445|   -6.027266|
|         737|   -6.054785|   -4.457762|   -4.270008|   -6.021420|
|         738|   -6.056122|   -4.455429|   -4.269737|   -6.015312|
|         739|   -6.057513|   -4.453405|   -4.269654|   -6.008935|
|         740|   -6.058941|   -4.451692|   -4.269789|   -6.002329|
|         741|   -6.060402|   -4.450220|   -4.270163|   -5.995556|
|         742|   -6.061866|   -4.449056|   -4.270755|   -5.988667|
|         743|   -6.063322|   -4.448182|   -4.271564|   -5.981718|
|         744|   -6.064776|   -4.447531|   -4.272568|   -5.974830|
|         745|   -6.066235|   -4.446979|   -4.273742|   -5.968200|
|         746|   -6.067692|   -4.446460|   -4.275075|   -5.962032|
|         747|   -6.069141|   -4.445902|   -4.276559|   -5.956484|
|         748|   -6.070581|   -4.445296|   -4.278253|   -5.951594|
|         749|   -6.072049|   -4.444667|   -4.280193|   -5.947315|
|         750|   -6.073548|   -4.443908|   -4.282390|   -5.943583|
|         751|   -6.075079|   -4.442794|   -4.284894|   -5.940355|
|         752|   -6.076647|   -4.441126|   -4.287781|   -5.937571|
|         753|   -6.078249|   -4.438775|   -4.291088|   -5.935198|
|         754|   -6.079886|   -4.435691|   -4.294870|   -5.933177|
|         755|   -6.081626|   -4.431853|   -4.299131|   -5.931457|
|         756|   -6.083443|   -4.427411|   -4.303776|   -5.930029|
|         757|   -6.085357|   -4.422654|   -4.308945|   -5.928897|
|         758|   -6.087376|   -4.417737|   -4.314484|   -5.928022|
|         759|   -6.089518|   -4.412717|   -4.320304|   -5.927403|
|         760|   -6.091777|   -4.407599|   -4.326371|   -5.927052|
|         761|   -6.094132|   -4.402354|   -4.332672|   -5.926964|
|         762|   -6.096656|   -4.396943|   -4.339184|   -5.927036|
|         763|   -6.099293|   -4.391354|   -4.345904|   -5.927286|
|         764|   -6.102047|   -4.385604|   -4.352793|   -5.927743|
|         765|   -6.104946|   -4.379712|   -4.359815|   -5.928497|
|         766|   -6.108048|   -4.373692|   -4.366971|   -5.929527|
|         767|   -6.111346|   -4.367605|   -4.374169|   -5.930935|
|         768|   -6.114735|   -4.361450|   -4.381367|   -5.932699|
|         769|   -6.118317|   -4.355264|   -4.388483|   -5.934764|
|         770|   -6.122090|   -4.349081|   -4.395496|   -5.937160|
|         771|   -6.125994|   -4.342908|   -4.402370|   -5.939891|
|         772|   -6.130026|   -4.336814|   -4.409077|   -5.942946|
|         773|   -6.134159|   -4.330868|   -4.415588|   -5.946494|
|         774|   -6.138413|   -4.325085|   -4.421870|   -5.950448|
|         775|   -6.142840|   -4.319510|   -4.427891|   -5.954692|
|         776|   -6.147373|   -4.314124|   -4.433573|   -5.959303|
|         777|   -6.151973|   -4.308923|   -4.438811|   -5.964333|
|         778|   -6.156753|   -4.303905|   -4.443436|   -5.969615|
|         779|   -6.161643|   -4.299055|   -4.447292|   -5.975165|
|         780|   -6.166585|   -4.294309|   -4.450213|   -5.980823|
|         781|   -6.171533|   -4.289606|   -4.452040|   -5.986377|
|         782|   -6.176377|   -4.284870|   -4.452577|   -5.991461|
|         783|   -6.180976|   -4.279976|   -4.451682|   -5.995691|
|         784|   -6.185159|   -4.274900|   -4.449418|   -5.998661|
|         785|   -6.188756|   -4.269603|   -4.445777|   -5.999951|
|         786|   -6.191576|   -4.264123|   -4.441426|   -5.999314|
|         787|   -6.193429|   -4.258577|   -4.436803|   -5.996722|
|         788|   -6.194280|   -4.253337|   -4.432742|   -5.992422|
|         789|   -6.194145|   -4.248970|   -4.429567|   -5.987030|
|         790|   -6.193588|   -4.245801|   -4.428020|   -5.981363|
|         791|   -6.193463|   -4.243702|   -4.427469|   -5.976295|
|         792|   -6.194138|   -4.242883|   -4.428929|   -5.972293|
|         793|   -6.196842|   -4.243882|   -4.433910|   -5.969596|
|         794|   -6.202166|   -4.246870|   -4.442783|   -5.968508|
|         795|   -6.210070|   -4.251321|   -4.454336|   -5.969115|
|         796|   -6.220355|   -4.256321|   -4.467152|   -5.971416|
|         797|   -6.232260|   -4.261078|   -4.480445|   -5.975133|
|         798|   -6.244911|   -4.265290|   -4.492878|   -5.979844|
|         799|   -6.257790|   -4.268885|   -4.503751|   -5.985185|
|         800|   -6.270104|   -4.271878|   -4.512784|   -5.991076|
|         801|   -6.281817|   -4.274364|   -4.520006|   -5.997472|
|         802|   -6.292789|   -4.276545|   -4.525577|   -6.004132|
|         803|   -6.303188|   -4.278535|   -4.529935|   -6.010686|
|         804|   -6.313067|   -4.280520|   -4.532816|   -6.016727|
|         805|   -6.322621|   -4.282396|   -4.534756|   -6.021884|
|         806|   -6.331763|   -4.284150|   -4.535869|   -6.025967|
|         807|   -6.340312|   -4.285797|   -4.536282|   -6.028932|
|         808|   -6.348170|   -4.287337|   -4.536042|   -6.030762|
|         809|   -6.355351|   -4.288743|   -4.535166|   -6.031444|
|         810|   -6.361988|   -4.290015|   -4.533676|   -6.031000|
|         811|   -6.368169|   -4.291169|   -4.531757|   -6.029515|
|         812|   -6.373911|   -4.292231|   -4.529565|   -6.027109|
|         813|   -6.379377|   -4.293243|   -4.527305|   -6.023914|
|         814|   -6.384691|   -4.294265|   -4.524966|   -6.019996|
|         815|   -6.390048|   -4.295290|   -4.522557|   -6.015439|
|         816|   -6.395474|   -4.296314|   -4.520017|   -6.010429|
|         817|   -6.400997|   -4.297336|   -4.517298|   -6.005123|
|         818|   -6.406435|   -4.298409|   -4.514421|   -5.999734|
|         819|   -6.411985|   -4.299524|   -4.511484|   -5.994098|
|         820|   -6.417458|   -4.300643|   -4.508609|   -5.988296|
|         821|   -6.422566|   -4.301698|   -4.505878|   -5.982498|
|         822|   -6.427129|   -4.302608|   -4.503361|   -5.976740|
|         823|   -6.431112|   -4.303281|   -4.501052|   -5.970892|
|         824|   -6.434281|   -4.303623|   -4.498841|   -5.964989|
|         825|   -6.436265|   -4.303553|   -4.496560|   -5.959070|
|         826|   -6.436802|   -4.302993|   -4.494123|   -5.953133|
|         827|   -6.435856|   -4.301961|   -4.491663|   -5.947265|
|         828|   -6.433810|   -4.300591|   -4.489360|   -5.941551|
|         829|   -6.430629|   -4.299152|   -4.487459|   -5.935938|
|         830|   -6.426929|   -4.297956|   -4.485949|   -5.930522|
|         831|   -6.423601|   -4.297320|   -4.483736|   -5.925273|
|         832|   -6.420057|   -4.297240|   -4.480450|   -5.920364|
|         833|   -6.415840|   -4.297182|   -4.479808|   -5.916044|
|         834|   -6.413506|   -4.296862|   -4.482560|   -5.912371|
|         835|   -6.414079|   -4.296491|   -4.487165|   -5.909281|
|         836|   -6.417635|   -4.296773|   -4.492320|   -5.906758|
|         837|   -6.422464|   -4.298294|   -4.497720|   -5.904584|
|         838|   -6.427552|   -4.300637|   -4.503410|   -5.902419|
|         839|   -6.432400|   -4.302844|   -4.508868|   -5.899963|
|         840|   -6.435295|   -4.304634|   -4.513154|   -5.897051|
|         841|   -6.434955|   -4.306107|   -4.516023|   -5.893771|
|         842|   -6.430388|   -4.307287|   -4.517489|   -5.890420|
|         843|   -6.422357|   -4.308084|   -4.517327|   -5.887289|
|         844|   -6.412483|   -4.308458|   -4.515385|   -5.884529|
|         845|   -6.401921|   -4.308240|   -4.511603|   -5.882065|
|         846|   -6.391463|   -4.307833|   -4.506306|   -5.879508|
|         847|   -6.380894|   -4.307875|   -4.500495|   -5.876595|
|         848|   -6.370174|   -4.308964|   -4.495138|   -5.873369|
|         849|   -6.358915|   -4.311379|   -4.490033|   -5.870062|
|         850|   -6.347469|   -4.314495|   -4.484679|   -5.866938|
|         851|   -6.336575|   -4.317672|   -4.480242|   -5.864157|
|         852|   -6.327477|   -4.320627|   -4.478448|   -5.861693|
|         853|   -6.321108|   -4.323239|   -4.479583|   -5.859510|
|         854|   -6.318146|   -4.325480|   -4.483973|   -5.857497|
|         855|   -6.317806|   -4.327403|   -4.491167|   -5.855525|
|         856|   -6.318477|   -4.329102|   -4.499416|   -5.853496|
|         857|   -6.318967|   -4.330650|   -4.507113|   -5.851341|
|         858|   -6.318355|   -4.332068|   -4.512926|   -5.849028|
|         859|   -6.316384|   -4.333324|   -4.515873|   -5.846562|
|         860|   -6.312945|   -4.334315|   -4.515466|   -5.843982|
|         861|   -6.308109|   -4.334987|   -4.512228|   -5.841343|
|         862|   -6.302019|   -4.335270|   -4.506283|   -5.838709|
|         863|   -6.295099|   -4.335165|   -4.498016|   -5.836134|
|         864|   -6.287873|   -4.334743|   -4.487959|   -5.833646|
|         865|   -6.280687|   -4.334037|   -4.476559|   -5.831262|
|         866|   -6.273744|   -4.333049|   -4.464155|   -5.828965|
|         867|   -6.267101|   -4.331724|   -4.451050|   -5.826736|
|         868|   -6.260695|   -4.329991|   -4.437530|   -5.824564|
|         869|   -6.254455|   -4.327855|   -4.423873|   -5.822429|
|         870|   -6.248221|   -4.325305|   -4.410406|   -5.820317|
|         871|   -6.241824|   -4.322419|   -4.397379|   -5.818239|
|         872|   -6.235003|   -4.319122|   -4.385125|   -5.816202|
|         873|   -6.227540|   -4.315469|   -4.373894|   -5.814262|
|         874|   -6.219253|   -4.311491|   -4.364012|   -5.812442|
|         875|   -6.210148|   -4.307394|   -4.355645|   -5.810750|
|         876|   -6.200338|   -4.303544|   -4.348970|   -5.809221|
|         877|   -6.190264|   -4.300411|   -4.344110|   -5.807844|
|         878|   -6.180426|   -4.298222|   -4.340867|   -5.806589|
|         879|   -6.171265|   -4.296958|   -4.338855|   -5.805408|
|         880|   -6.163275|   -4.296548|   -4.337436|   -5.804255|
|         881|   -6.157202|   -4.296841|   -4.336053|   -5.803122|
|         882|   -6.153725|   -4.298574|   -4.333877|   -5.801972|
|         883|   -6.152997|   -4.303437|   -4.330456|   -5.800878|
|         884|   -6.154548|   -4.313537|   -4.325597|   -5.799823|
|         885|   -6.156445|   -4.328345|   -4.320362|   -5.798835|
|         886|   -6.157623|   -4.344575|   -4.317051|   -5.797921|
|         887|   -6.158055|   -4.360333|   -4.315793|   -5.797052|
|         888|   -6.157927|   -4.374189|   -4.315456|   -5.796205|
|         889|   -6.157464|   -4.385172|   -4.315347|   -5.795385|
|         890|   -6.156877|   -4.393519|   -4.314981|   -5.794627|
|         891|   -6.156381|   -4.400110|   -4.313901|   -5.793970|
|         892|   -6.156061|   -4.405530|   -4.311869|   -5.793446|
|         893|   -6.155908|   -4.409714|   -4.309015|   -5.793082|
|         894|   -6.155864|   -4.412966|   -4.305583|   -5.792898|
|         895|   -6.155883|   -4.415350|   -4.301807|   -5.792898|
|         896|   -6.155953|   -4.416929|   -4.297826|   -5.793076|
|         897|   -6.156062|   -4.417805|   -4.293727|   -5.793420|
|         898|   -6.156194|   -4.418102|   -4.289560|   -5.793908|
|         899|   -6.156338|   -4.417945|   -4.285357|   -5.794509|
|         900|   -6.156493|   -4.417445|   -4.281140|   -5.795189|
|         901|   -6.156665|   -4.416701|   -4.276930|   -5.795911|
|         902|   -6.156858|   -4.415789|   -4.272755|   -5.796643|
|         903|   -6.157074|   -4.414747|   -4.268645|   -5.797362|
|         904|   -6.157315|   -4.413578|   -4.264627|   -5.798051|
|         905|   -6.157578|   -4.412253|   -4.260723|   -5.798708|
|         906|   -6.157868|   -4.410719|   -4.256908|   -5.799333|
|         907|   -6.158187|   -4.408914|   -4.253219|   -5.799932|
|         908|   -6.158545|   -4.406783|   -4.249673|   -5.800511|
|         909|   -6.158949|   -4.404293|   -4.246272|   -5.801076|
|         910|   -6.159415|   -4.401440|   -4.243019|   -5.801631|
|         911|   -6.159951|   -4.398245|   -4.239909|   -5.802177|
|         912|   -6.160563|   -4.394749|   -4.236945|   -5.802715|
|         913|   -6.161258|   -4.391007|   -4.234126|   -5.803246|
|         914|   -6.162034|   -4.387076|   -4.231450|   -5.803770|
|         915|   -6.162891|   -4.383008|   -4.228917|   -5.804291|
|         916|   -6.163824|   -4.378837|   -4.226527|   -5.804812|
|         917|   -6.164833|   -4.374579|   -4.224281|   -5.805341|
|         918|   -6.165917|   -4.370229|   -4.222180|   -5.805883|
|         919|   -6.167084|   -4.365766|   -4.220232|   -5.806448|
|         920|   -6.168342|   -4.361160|   -4.218447|   -5.807042|
|         921|   -6.169708|   -4.356373|   -4.216841|   -5.807672|
|         922|   -6.171197|   -4.351371|   -4.215428|   -5.808345|
|         923|   -6.172827|   -4.346129|   -4.214227|   -5.809066|
|         924|   -6.174610|   -4.340634|   -4.213252|   -5.809837|
|         925|   -6.176554|   -4.334888|   -4.212511|   -5.810663|
|         926|   -6.178654|   -4.328905|   -4.211993|   -5.811544|
|         927|   -6.180903|   -4.322713|   -4.211693|   -5.812483|
|         928|   -6.183293|   -4.316346|   -4.211603|   -5.813480|
|         929|   -6.185812|   -4.309842|   -4.211712|   -5.814536|
|         930|   -6.188449|   -4.303240|   -4.212015|   -5.815652|
|         931|   -6.191194|   -4.296575|   -4.212505|   -5.816828|
|         932|   -6.194038|   -4.289879|   -4.213179|   -5.818065|
|         933|   -6.196976|   -4.283182|   -4.214037|   -5.819362|
|         934|   -6.200003|   -4.276505|   -4.215082|   -5.820721|
|         935|   -6.203112|   -4.269869|   -4.216311|   -5.822142|
|         936|   -6.206299|   -4.263292|   -4.217721|   -5.823623|
|         937|   -6.209556|   -4.256791|   -4.219305|   -5.825166|
|         938|   -6.212876|   -4.250383|   -4.221058|   -5.826770|
|         939|   -6.216249|   -4.244081|   -4.222970|   -5.828434|
|         940|   -6.219669|   -4.237899|   -4.225034|   -5.830157|
|         941|   -6.223127|   -4.231849|   -4.227244|   -5.831939|
|         942|   -6.226618|   -4.225941|   -4.229594|   -5.833780|
|         943|   -6.230137|   -4.220182|   -4.232087|   -5.835678|
|         944|   -6.233684|   -4.214579|   -4.234726|   -5.837634|
|         945|   -6.237258|   -4.209134|   -4.237518|   -5.839647|
|         946|   -6.240860|   -4.203849|   -4.240472|   -5.841718|
|         947|   -6.244493|   -4.198720|   -4.243598|   -5.843846|
|         948|   -6.248162|   -4.193747|   -4.246913|   -5.846032|
|         949|   -6.251875|   -4.188927|   -4.250434|   -5.848278|
|         950|   -6.255639|   -4.184258|   -4.254178|   -5.850584|
|         951|   -6.259465|   -4.179735|   -4.258163|   -5.852952|
|         952|   -6.263364|   -4.175353|   -4.262329|   -5.855384|
|         953|   -6.267387|   -4.171085|   -4.265970|   -5.857878|
|         954|   -6.271499|   -4.166920|   -4.269594|   -5.860430|
|         955|   -6.275707|   -4.162844|   -4.273411|   -5.863043|
|         956|   -6.280035|   -4.158847|   -4.277558|   -5.865722|
|         957|   -6.284508|   -4.154911|   -4.282065|   -5.868469|
|         958|   -6.289148|   -4.151021|   -4.286954|   -5.871290|
|         959|   -6.293978|   -4.147158|   -4.292244|   -5.874192|
|         960|   -6.299024|   -4.143311|   -4.297950|   -5.877180|
|         961|   -6.304314|   -4.139467|   -4.304090|   -5.880263|
|         962|   -6.309875|   -4.135625|   -4.310677|   -5.883446|
|         963|   -6.315728|   -4.131776|   -4.317724|   -5.886740|
|         964|   -6.321899|   -4.127913|   -4.325239|   -5.890156|
|         965|   -6.328399|   -4.124037|   -4.333210|   -5.893702|
|         966|   -6.335254|   -4.120154|   -4.341692|   -5.897391|
|         967|   -6.342433|   -4.116273|   -4.350609|   -5.901238|
|         968|   -6.349938|   -4.112409|   -4.359975|   -5.905255|
|         969|   -6.357751|   -4.108580|   -4.369777|   -5.909462|
|         970|   -6.365845|   -4.104806|   -4.379995|   -5.913873|
|         971|   -6.374183|   -4.101114|   -4.390610|   -5.918505|
|         972|   -6.382716|   -4.097529|   -4.401601|   -5.923372|
|         973|   -6.391365|   -4.094154|   -4.412952|   -5.928505|
|         974|   -6.400203|   -4.091003|   -4.424646|   -5.933895|
|         975|   -6.409158|   -4.088072|   -4.436672|   -5.939553|
|         976|   -6.418217|   -4.085375|   -4.449023|   -5.945480|
|         977|   -6.427373|   -4.082916|   -4.461630|   -5.951677|
|         978|   -6.436591|   -4.080709|   -4.474518|   -5.958139|
|         979|   -6.445819|   -4.078759|   -4.487713|   -5.964860|
|         980|   -6.455045|   -4.077072|   -4.501197|   -5.971831|
|         981|   -6.464257|   -4.075650|   -4.514935|   -5.979037|
|         982|   -6.473433|   -4.074495|   -4.528874|   -5.986458|
|         983|   -6.482549|   -4.073591|   -4.542940|   -5.993995|
|         984|   -6.491387|   -4.072913|   -4.557028|   -6.001471|
|         985|   -6.499402|   -4.072630|   -4.571011|   -6.009449|
|         986|   -6.507678|   -4.072704|   -4.584723|   -6.017594|
|         987|   -6.515419|   -4.073019|   -4.597959|   -6.026023|
|         988|   -6.523248|   -4.073575|   -4.610488|   -6.034530|
|         989|   -6.530696|   -4.074323|   -4.622038|   -6.043090|
|         990|   -6.537776|   -4.075263|   -4.632335|   -6.051586|
|         991|   -6.544357|   -4.076394|   -4.641118|   -6.059941|
|         992|   -6.550415|   -4.077716|   -4.648152|   -6.068069|
|         993|   -6.555871|   -4.079208|   -4.653261|   -6.075945|
|         994|   -6.560722|   -4.080844|   -4.656346|   -6.083475|
|         995|   -6.564820|   -4.082600|   -4.657378|   -6.090595|
|         996|   -6.568033|   -4.084496|   -4.656413|   -6.097290|
|         997|   -6.570404|   -4.086545|   -4.653575|   -6.103545|
|         998|   -6.572017|   -4.088690|   -4.649058|   -6.109354|
|         999|   -6.572817|   -4.090892|   -4.643086|   -6.114709|
|        1000|   -6.572754|   -4.093139|   -4.635909|   -6.119629|
+-----------------------------------------------------------------------+
|        File Writing Summary       |              Filename             |
+-----------------------------------------------------------------------+
|SU2 restart                        |restart_venturi_mixturedensity_30kW_fine_test.dat|
|                                   |                     (508.465 MB/s)|
|Paraview                           |flow_venturi_mixturedensity_30kW_fine_test_00001000.vtu|
|                                   |                     (6.77858 MB/s)|
|Paraview surface                   |surface_flow_venturi_mixturedensity_30kW_fine_test.vtu|
|                                   |                     (1.90451 MB/s)|
+-----------------------------------------------------------------------+
+----------------------------------------------------------------+
|  Inner_Iter|      rms[P]|      rms[U]|      rms[V]|      rms[c]|
+----------------------------------------------------------------+
|        1001|   -6.571870|   -4.095428|   -4.627775|   -6.124120|
|        1002|   -6.570180|   -4.097758|   -4.618919|   -6.128203|
