scsub> Executing:  'cd /home/hem1dev/Codes/SU2_Github_Mark_Test/SU2/Venturi'


WARNING: CONV_CRITERIA is deprecated. SU2 will choose the criteria automatically based on the CONV_FIELD.
That is, RESIDUAL for any RMS_* BGS_* value, and CAUCHY for coefficients such as DRAG etc.


-------------------------------------------------------------------------
|    ___ _   _ ___                                                      |
|   / __| | | |_  )   Release 7.1.1 "Blackbird"                         |
|   \__ \ |_| |/ /                                                      |
|   |___/\___//___|   Suite (Computational Fluid Dynamics Code)         |
|                                                                       |
-------------------------------------------------------------------------
| SU2 Project Website: https://su2code.github.io                        |
|                                                                       |
| The SU2 Project is maintained by the SU2 Foundation                   |
| (http://su2foundation.org)                                            |
-------------------------------------------------------------------------
| Copyright 2012-2021, SU2 Contributors                                 |
|                                                                       |
| SU2 is free software; you can redistribute it and/or                  |
| modify it under the terms of the GNU Lesser General Public            |
| License as published by the Free Software Foundation; either          |
| version 2.1 of the License, or (at your option) any later version.    |
|                                                                       |
| SU2 is distributed in the hope that it will be useful,                |
| but WITHOUT ANY WARRANTY; without even the implied warranty of        |
| MERCHANTABILITY or FITNESS FOR A PARTICULAR PURPOSE. See the GNU      |
| Lesser General Public License for more details.                       |
|                                                                       |
| You should have received a copy of the GNU Lesser General Public      |
| License along with SU2. If not, see <http://www.gnu.org/licenses/>.   |
-------------------------------------------------------------------------


WARNING: CONV_CRITERIA is deprecated. SU2 will choose the criteria automatically based on the CONV_FIELD.
That is, RESIDUAL for any RMS_* BGS_* value, and CAUCHY for coefficients such as DRAG etc.


Parsing config file for zone 0


WARNING: CONV_CRITERIA is deprecated. SU2 will choose the criteria automatically based on the CONV_FIELD.
That is, RESIDUAL for any RMS_* BGS_* value, and CAUCHY for coefficients such as DRAG etc.


----------------- Physical Case Definition ( Zone 0 ) -------------------
Incompressible RANS equations.
Turbulence model: Menter's SST
Hybrid RANS/LES: No Hybrid RANS/LES
No restart solution, use the values at infinity (freestream).
Dimensional simulation.
The reference area is 1 m^2.
The semi-span will be computed using the max y(3D) value.
The reference length is 1 m.
Input mesh file name: SmallBoxVerification.su2

--------------- Space Numerical Integration ( Zone 0 ) ------------------
Flux difference splitting (FDS) upwind scheme for the flow inviscid terms.
Second order integration in space, with slope limiter.
No slope-limiting method. 
Average of gradients with correction (viscous flow terms).
Average of gradients with correction (viscous turbulence terms).
Gradient for upwind reconstruction: Green-Gauss.
Gradient for viscous and source terms: Green-Gauss.

--------------- Time Numerical Integration  ( Zone 0 ) ------------------
Local time stepping (steady state simulation).
Euler implicit method for the flow equations.
FGMRES is used for solving the linear system.
Using a ILU(0) preconditioning.
Convergence criteria of the linear solver: 1e-08.
Max number of linear iterations: 50.
No CFL adaptation.
Courant-Friedrichs-Lewy number:      100
Euler implicit time integration for the turbulence model.

------------------ Convergence Criteria  ( Zone 0 ) ---------------------
Maximum number of solver subiterations: 20000.
Begin convergence monitoring at iteration 10.
Residual minimum value: 1e-10.
Cauchy series min. value: 1e-06.
Number of Cauchy elements: 100.
Begin windowed time average at iteration 0.

-------------------- Output Information ( Zone 0 ) ----------------------
Writing solution files every 1000 iterations.
Writing the convergence history file every 1 inner iterations.
Writing the screen convergence history every 1 inner iterations.
The tabular file format is CSV (.csv).
Convergence history file name: history_smallbox_turb.
Forces breakdown file name: forces_breakdown.dat.
Surface file name: surface_verification_mixtureviscosity_smallbox_turb.
Volume file name: flow_verification_mixtureviscosity_smallbox_turb.
Restart file name: restart_verification_mixtureviscosity_smallbox_turb.dat.

------------- Config File Boundary Information ( Zone 0 ) ---------------
+-----------------------------------------------------------------------+
|                        Marker Type|                        Marker Name|
+-----------------------------------------------------------------------+
|                     Symmetry plane|                               wall|
+-----------------------------------------------------------------------+
|                     Inlet boundary|                      inlet_methane|
|                                   |                          inlet_air|
+-----------------------------------------------------------------------+
|                    Outlet boundary|                             outlet|
+-----------------------------------------------------------------------+

-------------------- Output Preprocessing ( Zone 0 ) --------------------
Screen output fields: INNER_ITER, RMS_PRESSURE, RMS_VELOCITY-X, RMS_VELOCITY-Y, RMS_PASSIVE_SCALAR
History output group(s): RMS_RES, AERO_COEFF, FLOW_COEFF
Convergence field(s): RMS_TEMPERATURE, RMS_PRESSURE, RMS_VELOCITY-X, RMS_VELOCITY-Y, RMS_TKE, RMS_DISSIPATION
Warning: No (valid) fields chosen for time convergence monitoring. Time convergence monitoring inactive.
  Info: Ignoring the following volume output fields/groups:
  SOURCE, LOOKUP
Volume output fields: DENSITY, SOLUTION, PRIMITIVE, RESIDUAL, COORDINATES

------------------- Geometry Preprocessing ( Zone 0 ) -------------------
Two dimensional problem.
380 grid points before partitioning.
342 volume elements before partitioning.
4 surface markers.
38 boundary elements in index 0 (Marker = wall).
18 boundary elements in index 1 (Marker = outlet).
9 boundary elements in index 2 (Marker = inlet_air).
9 boundary elements in index 3 (Marker = inlet_methane).
Executing the partitioning functions.
Building the graph adjacency structure.
Calling ParMETIS... graph partitioning complete (480 edge cuts).
Distributing ParMETIS coloring.
Rebalancing vertices.
Rebalancing volume element connectivity.
Rebalancing markers and surface elements.
1802 vertices including ghost points. 
914 interior elements including halo cells. 
914 quadrilaterals.
Establishing MPI communication patterns.
Setting point connectivity.
Renumbering points (Reverse Cuthill McKee Ordering).
Recomputing point connectivity.
Setting element connectivity.
Checking the numerical grid orientation.
There has been a re-orientation of 914 QUADRILATERAL volume elements.
There has been a re-orientation of 121 LINE surface elements.
Identifying edges and vertices.
Setting the control volume structure.
Area of the computational grid: 0.267251.
Searching for the closest normal neighbors to the surfaces.
Storing a mapping from global to local point index.
Compute the surface curvature.
Max K: 37.7901. Mean K: 3.82684. Standard deviation K: 11.4005.
Checking for periodicity.
Computing mesh quality statistics for the dual control volumes.
+--------------------------------------------------------------+
|           Mesh Quality Metric|        Minimum|        Maximum|
+--------------------------------------------------------------+
|    Orthogonality Angle (deg.)|             90|             90|
|     CV Face Area Aspect Ratio|        4.73684|        18.9474|
|           CV Sub-Volume Ratio|              1|              1|
+--------------------------------------------------------------+
Finding max control volume width.
Communicating number of neighbors.
Wetted area = 0 m.
Area projection in the x-plane = 0 m, y-plane = 0 m.
Max. coordinate in the x-direction = -1e+10 m, y-direction = -1e+10 m.
Min. coordinate in the x-direction = 1e+10 m, y-direction = 1e+10 m.
Checking if Euler & Symmetry markers are straight/plane:
Boundary marker wall is a single straight.
Computing wall distances.

-------------------- Solver Preprocessing ( Zone 0 ) --------------------
Incompressible flow: rho_ref, vel_ref, temp_ref, p_ref
are set to 1.0 in order to perform a dimensional calculation.
Force coefficients computed using initial values.
The reference area for force coeffs. is 1 m^2.
The reference length for force coeffs. is 1 m.
The pressure is decomposed into thermodynamic and dynamic components.
The initial value of the dynamic pressure is 0.
Mach number: 0, computed using fluid speed of sound.
For external flows, the initial state is imposed at the far-field.
Angle of attack (deg): 0, computed using the initial velocity.
Side slip angle (deg): 0, computed using the initial velocity.
Reynolds number per meter: 66110.8, computed using initial values.
Reynolds number is a byproduct of inputs only (not used internally).
SI units only. The grid should be dimensional (meters).
Energy equation is active and coupled for variable density.

-- Models:
+------------------------------------------------------------------------------+
|          Viscosity Model|        Conductivity Model|              Fluid Model|
+------------------------------------------------------------------------------+
|               SUTHERLAND|          CONSTANT_PRANDTL|+------------------------------------------------------------------------------+
-- Fluid properties:
+------------------------------------------------------------------------------+
|                  Name|    Dim. value|    Ref. value|      Unit|Non-dim. value|
+------------------------------------------------------------------------------+
|        Ref. Viscosity|     1.716e-05|             1|   N.s/m^2|     1.716e-05|
|      Sutherland Temp.|        273.15|             1|         K|        273.15|
|     Sutherland Const.|         110.4|             1|         K|         110.4|
+------------------------------------------------------------------------------+
|        Prandtl (Lam.)|             -|             -|         -|          0.72|
|       Prandtl (Turb.)|             -|             -|         -|           0.9|
+------------------------------------------------------------------------------+
-- Initial and free-stream conditions:
+------------------------------------------------------------------------------+
|                  Name|    Dim. value|    Ref. value|      Unit|Non-dim. value|
+------------------------------------------------------------------------------+
|      Dynamic Pressure|             0|             1|        Pa|             0|
|        Total Pressure|        0.6026|             1|        Pa|        0.6026|
|               Density|        1.2052|             1|    kg/m^3|        1.2052|
|           Temperature|        293.15|             1|         K|        293.15|
|            Velocity-X|             1|             1|       m/s|             1|
|            Velocity-Y|             0|             1|       m/s|             0|
|    Velocity Magnitude|             1|             1|       m/s|             1|
+------------------------------------------------------------------------------+
|             Viscosity|     1.823e-05|             1|   N.s/m^2|     1.823e-05|
|          Conductivity|             -|             1|   W/m^2.K|             -|
|     Turb. Kin. Energy|       0.00375|             1|   m^2/s^2|       0.00375|
|     Spec. Dissipation|       24.7916|             1|       1/s|       24.7916|
+------------------------------------------------------------------------------+
|           Mach Number|             -|             -|         -|             0|
|       Reynolds Number|             -|             -|         -|       66110.8|
+------------------------------------------------------------------------------+
Initialize Jacobian structure (Navier-Stokes). MG level: 0.
Initialize Jacobian structure (passive scalar model).
Initialize Jacobian structure (SST model).

------------------- Numerics Preprocessing ( Zone 0 ) -------------------

----------------- Integration Preprocessing ( Zone 0 ) ------------------

------------------- Iteration Preprocessing ( Zone 0 ) ------------------
Euler/Navier-Stokes/RANS fluid iteration.

------------------------------ Begin Solver -----------------------------

Simulation Run using the Single-zone Driver
Initializing passive scalar (initial condition).
initialization = 1 1
CSysSolve::FGMRES(): system solved by initial guess.
CSysSolve::FGMRES(): system solved by initial guess.
+----------------------------------------------------------------+
|  Inner_Iter|      rms[P]|      rms[U]|      rms[V]|      rms[c]|
+----------------------------------------------------------------+
|           0|  -18.468488|  -18.188241|  -19.330452|  -18.370101|
|           1|   -3.446180|   -3.446180|  -18.563354|   -3.374895|
|           2|   -3.457941|   -3.327096|   -3.190028|   -3.377312|
|           3|   -3.664974|   -3.438966|   -3.402610|   -3.382965|
|           4|   -3.620984|   -3.397924|   -3.392099|   -3.394950|
|           5|   -3.628119|   -3.368328|   -3.405537|   -3.395539|
|           6|   -3.696403|   -3.370679|   -3.472628|   -3.385862|
|           7|   -3.775506|   -3.375444|   -3.565790|   -3.373434|
|           8|   -3.812595|   -3.371471|   -3.635654|   -3.365093|
|           9|   -3.824407|   -3.366506|   -3.661370|   -3.360912|
|          10|   -3.843174|   -3.364364|   -3.678899|   -3.359035|
|          11|   -3.872825|   -3.365647|   -3.710641|   -3.357274|
|          12|   -3.901390|   -3.368514|   -3.750734|   -3.356054|
|          13|   -3.921498|   -3.371322|   -3.790590|   -3.355783|
|          14|   -3.938431|   -3.374740|   -3.822248|   -3.355635|
|          15|   -3.955694|   -3.378719|   -3.847100|   -3.355687|
|          16|   -3.973592|   -3.383136|   -3.872954|   -3.355781|
|          17|   -3.992206|   -3.387988|   -3.901383|   -3.355710|
|          18|   -4.011283|   -3.393184|   -3.930115|   -3.355231|
|          19|   -4.031820|   -3.398777|   -3.957857|   -3.354138|
|          20|   -4.053697|   -3.404560|   -3.986314|   -3.352595|
|          21|   -4.076193|   -3.410427|   -4.015752|   -3.350912|
|          22|   -4.098972|   -3.416327|   -4.045652|   -3.349363|
|          23|   -4.121594|   -3.422234|   -4.075225|   -3.348011|
|          24|   -4.143711|   -3.428182|   -4.102357|   -3.346954|
|          25|   -4.165237|   -3.434109|   -4.127371|   -3.346193|
|          26|   -4.186428|   -3.440039|   -4.150138|   -3.345664|
|          27|   -4.207757|   -3.446019|   -4.170875|   -3.345278|
|          28|   -4.229694|   -3.452089|   -4.190014|   -3.344967|
|          29|   -4.252432|   -3.458275|   -4.208195|   -3.344704|
|          30|   -4.275635|   -3.464624|   -4.225267|   -3.344504|
|          31|   -4.298556|   -3.471111|   -4.241479|   -3.344394|
|          32|   -4.320103|   -3.477729|   -4.256654|   -3.344396|
|          33|   -4.339060|   -3.484488|   -4.270308|   -3.344505|
|          34|   -4.354445|   -3.491388|   -4.281952|   -3.344683|
|          35|   -4.365783|   -3.498421|   -4.291259|   -3.344868|
|          36|   -4.373164|   -3.505574|   -4.298239|   -3.344985|
|          37|   -4.377082|   -3.512832|   -4.303212|   -3.344965|
|          38|   -4.378174|   -3.520187|   -4.306688|   -3.344755|
|          39|   -4.376918|   -3.527658|   -4.309003|   -3.344322|
|          40|   -4.373424|   -3.535218|   -4.310109|   -3.343674|
|          41|   -4.368497|   -3.542817|   -4.309761|   -3.342785|
|          42|   -4.362834|   -3.550338|   -4.308431|   -3.341670|
|          43|   -4.356504|   -3.557770|   -4.306634|   -3.340367|
|          44|   -4.349709|   -3.565114|   -4.304641|   -3.338908|
|          45|   -4.342664|   -3.572365|   -4.302614|   -3.337321|
|          46|   -4.335601|   -3.579511|   -4.300643|   -3.335638|
|          47|   -4.328737|   -3.586537|   -4.298801|   -3.333889|
|          48|   -4.322230|   -3.593424|   -4.297151|   -3.332106|
|          49|   -4.316157|   -3.600155|   -4.295744|   -3.330322|
|          50|   -4.310504|   -3.606711|   -4.294607|   -3.328572|
|          51|   -4.305180|   -3.613079|   -4.293724|   -3.326890|
|          52|   -4.300039|   -3.619245|   -4.293028|   -3.325309|
|          53|   -4.294922|   -3.625199|   -4.292405|   -3.323854|
|          54|   -4.289685|   -3.630931|   -4.291716|   -3.322545|
|          55|   -4.284230|   -3.636434|   -4.290818|   -3.321390|
|          56|   -4.278527|   -3.641703|   -4.289595|   -3.320388|
|          57|   -4.272610|   -3.646732|   -4.287980|   -3.319527|
|          58|   -4.266574|   -3.651520|   -4.285971|   -3.318788|
|          59|   -4.260552|   -3.656068|   -4.283628|   -3.318147|
|          60|   -4.254698|   -3.660380|   -4.281066|   -3.317574|
|          61|   -4.249160|   -3.664464|   -4.278433|   -3.317040|
|          62|   -4.244070|   -3.668333|   -4.275894|   -3.316516|
|          63|   -4.239527|   -3.672000|   -4.273605|   -3.315980|
|          64|   -4.235595|   -3.675483|   -4.271697|   -3.315410|
|          65|   -4.232297|   -3.678800|   -4.270269|   -3.314793|
|          66|   -4.229621|   -3.681972|   -4.269379|   -3.314123|
|          67|   -4.227521|   -3.685015|   -4.269042|   -3.313398|
|          68|   -4.225929|   -3.687946|   -4.269236|   -3.312622|
|          69|   -4.224755|   -3.690778|   -4.269905|   -3.311802|
|          70|   -4.223900|   -3.693522|   -4.270959|   -3.310948|
|          71|   -4.223264|   -3.696184|   -4.272303|   -3.310070|
|          72|   -4.222751|   -3.698767|   -4.273836|   -3.309178|
|          73|   -4.222275|   -3.701270|   -4.275454|   -3.308283|
|          74|   -4.221768|   -3.703690|   -4.277055|   -3.307390|
|          75|   -4.221181|   -3.706023|   -4.278553|   -3.306506|
|          76|   -4.220485|   -3.708262|   -4.279884|   -3.305634|
|          77|   -4.219672|   -3.710400|   -4.281004|   -3.304774|
|          78|   -4.218750|   -3.712431|   -4.281897|   -3.303926|
|          79|   -4.217744|   -3.714347|   -4.282567|   -3.303087|
|          80|   -4.216684|   -3.716144|   -4.283038|   -3.302253|
|          81|   -4.215608|   -3.717817|   -4.283346|   -3.301421|
|          82|   -4.214553|   -3.719363|   -4.283539|   -3.300587|
|          83|   -4.213552|   -3.720780|   -4.283665|   -3.299749|
|          84|   -4.212631|   -3.722067|   -4.283773|   -3.298903|
|          85|   -4.211807|   -3.723223|   -4.283904|   -3.298051|
|          86|   -4.211085|   -3.724249|   -4.284093|   -3.297191|
|          87|   -4.210461|   -3.725144|   -4.284365|   -3.296326|
|          88|   -4.209920|   -3.725910|   -4.284733|   -3.295458|
|          89|   -4.209437|   -3.726546|   -4.285201|   -3.294592|
|          90|   -4.208979|   -3.727053|   -4.285762|   -3.293732|
|          91|   -4.208509|   -3.727431|   -4.286402|   -3.292883|
|          92|   -4.207985|   -3.727679|   -4.287099|   -3.292049|
|          93|   -4.207366|   -3.727797|   -4.287829|   -3.291236|
|          94|   -4.206612|   -3.727786|   -4.288563|   -3.290448|
|          95|   -4.205686|   -3.727644|   -4.289275|   -3.289688|
|          96|   -4.204558|   -3.727373|   -4.289938|   -3.288959|
|          97|   -4.203205|   -3.726973|   -4.290530|   -3.288264|
|          98|   -4.201613|   -3.726446|   -4.291034|   -3.287603|
|          99|   -4.199777|   -3.725794|   -4.291436|   -3.286976|
|         100|   -4.197700|   -3.725021|   -4.291731|   -3.286383|
|         101|   -4.195393|   -3.724131|   -4.291919|   -3.285821|
|         102|   -4.192871|   -3.723129|   -4.292006|   -3.285290|
|         103|   -4.190161|   -3.722023|   -4.292003|   -3.284787|
|         104|   -4.187290|   -3.720818|   -4.291924|   -3.284306|
|         105|   -4.184290|   -3.719523|   -4.291788|   -3.283847|
|         106|   -4.181190|   -3.718145|   -4.291616|   -3.283404|
|         107|   -4.178019|   -3.716696|   -4.291425|   -3.282976|
|         108|   -4.174806|   -3.715182|   -4.291238|   -3.282559|
|         109|   -4.171576|   -3.713610|   -4.291074|   -3.282151|
|         110|   -4.168351|   -3.711991|   -4.290952|   -3.281750|
|         111|   -4.165146|   -3.710332|   -4.290887|   -3.281355|
|         112|   -4.161976|   -3.708642|   -4.290891|   -3.280963|
|         113|   -4.158846|   -3.706928|   -4.290971|   -3.280576|
|         114|   -4.155761|   -3.705197|   -4.291132|   -3.280192|
|         115|   -4.152720|   -3.703457|   -4.291373|   -3.279813|
|         116|   -4.149720|   -3.701711|   -4.291692|   -3.279439|
|         117|   -4.146753|   -3.699967|   -4.292082|   -3.279072|
|         118|   -4.143811|   -3.698227|   -4.292534|   -3.278713|
|         119|   -4.140882|   -3.696496|   -4.293036|   -3.278364|
|         120|   -4.137957|   -3.694778|   -4.293575|   -3.278026|
|         121|   -4.135023|   -3.693074|   -4.294136|   -3.277701|
|         122|   -4.132070|   -3.691389|   -4.294705|   -3.277391|
|         123|   -4.129088|   -3.689723|   -4.295265|   -3.277095|
|         124|   -4.126068|   -3.688079|   -4.295804|   -3.276816|
|         125|   -4.123004|   -3.686458|   -4.296307|   -3.276554|
|         126|   -4.119878|   -3.684905|   -4.296695|   -3.276307|
|         127|   -4.116706|   -3.683360|   -4.296966|   -3.276077|
|         128|   -4.113496|   -3.681823|   -4.297134|   -3.275862|
|         129|   -4.110251|   -3.680300|   -4.297213|   -3.275661|
|         130|   -4.106977|   -3.678795|   -4.297212|   -3.275474|
|         131|   -4.103683|   -3.677311|   -4.297140|   -3.275299|
|         132|   -4.100377|   -3.675852|   -4.297005|   -3.275132|
|         133|   -4.097069|   -3.674421|   -4.296815|   -3.274974|
|         134|   -4.093772|   -3.673020|   -4.296579|   -3.274820|
|         135|   -4.090498|   -3.671653|   -4.296307|   -3.274668|
|         136|   -4.087258|   -3.670321|   -4.296011|   -3.274517|
|         137|   -4.084066|   -3.669026|   -4.295700|   -3.274362|
|         138|   -4.080935|   -3.667771|   -4.295389|   -3.274203|
|         139|   -4.077876|   -3.666558|   -4.295087|   -3.274037|
|         140|   -4.074900|   -3.665387|   -4.294809|   -3.273861|
|         141|   -4.072017|   -3.664260|   -4.294565|   -3.273674|
|         142|   -4.069237|   -3.663177|   -4.294367|   -3.273474|
|         143|   -4.066566|   -3.662141|   -4.294226|   -3.273261|
|         144|   -4.064010|   -3.661150|   -4.294151|   -3.273032|
|         145|   -4.061574|   -3.660206|   -4.294149|   -3.272788|
|         146|   -4.059262|   -3.659309|   -4.294229|   -3.272528|
|         147|   -4.057073|   -3.658457|   -4.294395|   -3.272254|
|         148|   -4.055008|   -3.657651|   -4.294650|   -3.271964|
|         149|   -4.053065|   -3.656890|   -4.294998|   -3.271660|
|         150|   -4.051241|   -3.656172|   -4.295439|   -3.271344|
|         151|   -4.049531|   -3.655497|   -4.295971|   -3.271017|
|         152|   -4.047928|   -3.654862|   -4.296593|   -3.270681|
|         153|   -4.046426|   -3.654267|   -4.297300|   -3.270338|
|         154|   -4.045016|   -3.653709|   -4.298087|   -3.269990|
|         155|   -4.043689|   -3.653186|   -4.298947|   -3.269640|
|         156|   -4.042434|   -3.652696|   -4.299873|   -3.269290|
|         157|   -4.041242|   -3.652237|   -4.300856|   -3.268943|
|         158|   -4.040100|   -3.651806|   -4.301887|   -3.268601|
|         159|   -4.038998|   -3.651401|   -4.302954|   -3.268266|
|         160|   -4.037924|   -3.651020|   -4.304049|   -3.267942|
|         161|   -4.036866|   -3.650660|   -4.305160|   -3.267630|
|         162|   -4.035813|   -3.650320|   -4.306276|   -3.267333|
|         163|   -4.034754|   -3.649996|   -4.307387|   -3.267052|
|         164|   -4.033680|   -3.649687|   -4.308483|   -3.266790|
|         165|   -4.032581|   -3.649390|   -4.309553|   -3.266547|
|         166|   -4.031448|   -3.649105|   -4.310589|   -3.266325|
|         167|   -4.030273|   -3.648829|   -4.311583|   -3.266125|
|         168|   -4.029051|   -3.648561|   -4.312527|   -3.265948|
|         169|   -4.027777|   -3.648300|   -4.313416|   -3.265792|
|         170|   -4.026445|   -3.648045|   -4.314244|   -3.265660|
|         171|   -4.025054|   -3.647796|   -4.315009|   -3.265550|
|         172|   -4.023601|   -3.647551|   -4.315708|   -3.265462|
|         173|   -4.022088|   -3.647311|   -4.316340|   -3.265394|
|         174|   -4.020514|   -3.647075|   -4.316905|   -3.265347|
|         175|   -4.018881|   -3.646844|   -4.317407|   -3.265319|
|         176|   -4.017193|   -3.646618|   -4.317846|   -3.265307|
|         177|   -4.015452|   -3.646398|   -4.318227|   -3.265312|
|         178|   -4.013665|   -3.646184|   -4.318556|   -3.265330|
|         179|   -4.011835|   -3.645977|   -4.318837|   -3.265359|
|         180|   -4.009961|   -3.645809|   -4.319024|   -3.265399|
|         181|   -4.008055|   -3.645658|   -4.319105|   -3.265447|
|         182|   -4.006129|   -3.645502|   -4.319106|   -3.265501|
|         183|   -4.004191|   -3.645346|   -4.319054|   -3.265558|
|         184|   -4.002248|   -3.645192|   -4.318968|   -3.265618|
|         185|   -4.000308|   -3.645042|   -4.318863|   -3.265676|
|         186|   -3.998376|   -3.644899|   -4.318753|   -3.265733|
|         187|   -3.996458|   -3.644765|   -4.318649|   -3.265786|
|         188|   -3.994560|   -3.644640|   -4.318559|   -3.265833|
|         189|   -3.992686|   -3.644527|   -4.318493|   -3.265873|
|         190|   -3.990842|   -3.644426|   -4.318457|   -3.265904|
|         191|   -3.989031|   -3.644339|   -4.318456|   -3.265926|
|         192|   -3.987256|   -3.644267|   -4.318496|   -3.265937|
|         193|   -3.985520|   -3.644211|   -4.318580|   -3.265937|
|         194|   -3.983825|   -3.644170|   -4.318713|   -3.265924|
|         195|   -3.982173|   -3.644146|   -4.318895|   -3.265900|
|         196|   -3.980564|   -3.644138|   -4.319129|   -3.265863|
|         197|   -3.978998|   -3.644147|   -4.319416|   -3.265814|
|         198|   -3.977476|   -3.644172|   -4.319755|   -3.265752|
|         199|   -3.975996|   -3.644214|   -4.320147|   -3.265678|
|         200|   -3.974557|   -3.644271|   -4.320589|   -3.265593|
|         201|   -3.973157|   -3.644342|   -4.321081|   -3.265496|
|         202|   -3.971794|   -3.644428|   -4.321619|   -3.265390|
|         203|   -3.970466|   -3.644527|   -4.322202|   -3.265275|
|         204|   -3.969170|   -3.644638|   -4.322827|   -3.265151|
|         205|   -3.967901|   -3.644761|   -4.323488|   -3.265019|
|         206|   -3.966658|   -3.644893|   -4.324184|   -3.264882|
|         207|   -3.965436|   -3.645034|   -4.324910|   -3.264740|
|         208|   -3.964235|   -3.645185|   -4.325661|   -3.264593|
|         209|   -3.963048|   -3.645342|   -4.326436|   -3.264444|
|         210|   -3.961872|   -3.645503|   -4.327229|   -3.264293|
|         211|   -3.960703|   -3.645667|   -4.328036|   -3.264141|
|         212|   -3.959538|   -3.645834|   -4.328851|   -3.263990|
|         213|   -3.958373|   -3.646001|   -4.329670|   -3.263841|
|         214|   -3.957204|   -3.646169|   -4.330488|   -3.263693|
|         215|   -3.956028|   -3.646335|   -4.331302|   -3.263549|
|         216|   -3.954844|   -3.646498|   -4.332107|   -3.263409|
|         217|   -3.953648|   -3.646659|   -4.332901|   -3.263274|
|         218|   -3.952437|   -3.646814|   -4.333678|   -3.263143|
|         219|   -3.951211|   -3.646965|   -4.334438|   -3.263019|
|         220|   -3.949968|   -3.647111|   -4.335176|   -3.262900|
|         221|   -3.948713|   -3.647253|   -4.335892|   -3.262788|
|         222|   -3.947437|   -3.647387|   -4.336586|   -3.262682|
|         223|   -3.946148|   -3.647519|   -4.337255|   -3.262583|
|         224|   -3.944840|   -3.647642|   -4.337901|   -3.262490|
|         225|   -3.943514|   -3.647757|   -4.338523|   -3.262403|
|         226|   -3.942169|   -3.647864|   -4.339122|   -3.262322|
|         227|   -3.940807|   -3.647964|   -4.339697|   -3.262248|
|         228|   -3.939428|   -3.648057|   -4.340249|   -3.262179|
|         229|   -3.938040|   -3.648146|   -4.340779|   -3.262114|
|         230|   -3.936638|   -3.648228|   -4.341289|   -3.262055|
|         231|   -3.935226|   -3.648305|   -4.341782|   -3.261999|
|         232|   -3.933804|   -3.648375|   -4.342258|   -3.261946|
|         233|   -3.932379|   -3.648443|   -4.342720|   -3.261896|
|         234|   -3.930948|   -3.648506|   -4.343172|   -3.261848|
|         235|   -3.929514|   -3.648565|   -4.343614|   -3.261802|
|         236|   -3.928080|   -3.648622|   -4.344047|   -3.261756|
|         237|   -3.926647|   -3.648676|   -4.344475|   -3.261710|
|         238|   -3.925218|   -3.648729|   -4.344901|   -3.261664|
|         239|   -3.923795|   -3.648781|   -4.345327|   -3.261617|
|         240|   -3.922380|   -3.648834|   -4.345756|   -3.261567|
|         241|   -3.920974|   -3.648887|   -4.346192|   -3.261515|
|         242|   -3.919581|   -3.648941|   -4.346636|   -3.261461|
|         243|   -3.918201|   -3.648997|   -4.347091|   -3.261402|
|         244|   -3.916836|   -3.649056|   -4.347559|   -3.261340|
|         245|   -3.915489|   -3.649117|   -4.348044|   -3.261274|
|         246|   -3.914159|   -3.649182|   -4.348547|   -3.261203|
|         247|   -3.912840|   -3.649288|   -4.349011|   -3.261127|
|         248|   -3.911538|   -3.649411|   -4.349408|   -3.261047|
|         249|   -3.910260|   -3.649523|   -4.349762|   -3.260960|
|         250|   -3.909007|   -3.649627|   -4.350098|   -3.260869|
|         251|   -3.907779|   -3.649724|   -4.350431|   -3.260772|
|         252|   -3.906578|   -3.649817|   -4.350772|   -3.260669|
|         253|   -3.905403|   -3.649906|   -4.351129|   -3.260561|
|         254|   -3.904256|   -3.649992|   -4.351507|   -3.260448|
|         255|   -3.903135|   -3.650076|   -4.351909|   -3.260329|
|         256|   -3.902040|   -3.650159|   -4.352339|   -3.260205|
|         257|   -3.900971|   -3.650239|   -4.352797|   -3.260077|
|         258|   -3.899925|   -3.650318|   -4.353284|   -3.259944|
|         259|   -3.898903|   -3.650396|   -4.353800|   -3.259807|
|         260|   -3.897903|   -3.650471|   -4.354344|   -3.259666|
|         261|   -3.896924|   -3.650544|   -4.354915|   -3.259521|
|         262|   -3.895964|   -3.650615|   -4.355511|   -3.259374|
|         263|   -3.895022|   -3.650683|   -4.356131|   -3.259224|
|         264|   -3.894096|   -3.650748|   -4.356771|   -3.259072|
|         265|   -3.893185|   -3.650810|   -4.357430|   -3.258918|
|         266|   -3.892287|   -3.650867|   -4.358105|   -3.258764|
|         267|   -3.891401|   -3.650921|   -4.358793|   -3.258608|
|         268|   -3.890526|   -3.650970|   -4.359492|   -3.258453|
|         269|   -3.889659|   -3.651015|   -4.360199|   -3.258298|
|         270|   -3.888801|   -3.651054|   -4.360911|   -3.258143|
|         271|   -3.887948|   -3.651087|   -4.361626|   -3.257990|
|         272|   -3.887099|   -3.651115|   -4.362341|   -3.257838|
|         273|   -3.886254|   -3.651136|   -4.363054|   -3.257688|
|         274|   -3.885410|   -3.651150|   -4.363761|   -3.257540|
|         275|   -3.884568|   -3.651158|   -4.364461|   -3.257395|
|         276|   -3.883727|   -3.651159|   -4.365151|   -3.257253|
|         277|   -3.882885|   -3.651153|   -4.365830|   -3.257113|
|         278|   -3.882043|   -3.651141|   -4.366496|   -3.256977|
|         279|   -3.881199|   -3.651121|   -4.367148|   -3.256844|
|         280|   -3.880354|   -3.651095|   -4.367783|   -3.256715|
|         281|   -3.879507|   -3.651062|   -4.368401|   -3.256590|
|         282|   -3.878657|   -3.651023|   -4.369000|   -3.256468|
|         283|   -3.877805|   -3.650977|   -4.369579|   -3.256349|
|         284|   -3.876950|   -3.650924|   -4.370138|   -3.256234|
|         285|   -3.876093|   -3.650866|   -4.370676|   -3.256123|
|         286|   -3.875234|   -3.650802|   -4.371192|   -3.256015|
|         287|   -3.874373|   -3.650733|   -4.371686|   -3.255910|
|         288|   -3.873511|   -3.650658|   -4.372158|   -3.255808|
|         289|   -3.872649|   -3.650580|   -4.372607|   -3.255709|
|         290|   -3.871787|   -3.650497|   -4.373035|   -3.255613|
|         291|   -3.870927|   -3.650411|   -4.373441|   -3.255518|
|         292|   -3.870068|   -3.650322|   -4.373825|   -3.255426|
|         293|   -3.869213|   -3.650230|   -4.374189|   -3.255335|
|         294|   -3.868362|   -3.650137|   -4.374533|   -3.255245|
|         295|   -3.867517|   -3.650043|   -4.374859|   -3.255157|
|         296|   -3.866679|   -3.649947|   -4.375166|   -3.255068|
|         297|   -3.865849|   -3.649853|   -4.375457|   -3.254980|
|         298|   -3.865028|   -3.649758|   -4.375733|   -3.254891|
|         299|   -3.864218|   -3.649665|   -4.375994|   -3.254802|
|         300|   -3.863421|   -3.649574|   -4.376242|   -3.254711|
|         301|   -3.862637|   -3.649485|   -4.376479|   -3.254618|
|         302|   -3.861869|   -3.649400|   -4.376707|   -3.254524|
|         303|   -3.861117|   -3.649317|   -4.376926|   -3.254426|
|         304|   -3.860384|   -3.649239|   -4.377138|   -3.254326|
|         305|   -3.859670|   -3.649166|   -4.377345|   -3.254223|
|         306|   -3.858978|   -3.649097|   -4.377549|   -3.254115|
|         307|   -3.858308|   -3.649034|   -4.377751|   -3.254003|
|         308|   -3.857661|   -3.648977|   -4.377952|   -3.253887|
|         309|   -3.857035|   -3.648962|   -4.378104|   -3.253765|
|         310|   -3.856429|   -3.648987|   -4.378152|   -3.253638|
|         311|   -3.855854|   -3.649002|   -4.378120|   -3.253506|
|         312|   -3.855310|   -3.649010|   -4.378044|   -3.253368|
|         313|   -3.854799|   -3.649013|   -4.377943|   -3.253223|
|         314|   -3.854324|   -3.649013|   -4.377832|   -3.253072|
|         315|   -3.853884|   -3.649012|   -4.377718|   -3.252913|
|         316|   -3.853482|   -3.649011|   -4.377610|   -3.252748|
|         317|   -3.853119|   -3.649010|   -4.377512|   -3.252575|
|         318|   -3.852795|   -3.649010|   -4.377429|   -3.252394|
|         319|   -3.852510|   -3.649012|   -4.377363|   -3.252206|
|         320|   -3.852267|   -3.649015|   -4.377316|   -3.252010|
|         321|   -3.852065|   -3.649019|   -4.377291|   -3.251805|
|         322|   -3.851905|   -3.649025|   -4.377288|   -3.251592|
|         323|   -3.851788|   -3.649033|   -4.377307|   -3.251371|
|         324|   -3.851714|   -3.649042|   -4.377350|   -3.251142|
|         325|   -3.851682|   -3.649052|   -4.377415|   -3.250904|
|         326|   -3.851695|   -3.649062|   -4.377503|   -3.250658|
|         327|   -3.851751|   -3.649073|   -4.377614|   -3.250404|
|         328|   -3.851850|   -3.649083|   -4.377746|   -3.250142|
|         329|   -3.851994|   -3.649093|   -4.377899|   -3.249871|
|         330|   -3.852181|   -3.649100|   -4.378072|   -3.249593|
|         331|   -3.852412|   -3.649105|   -4.378264|   -3.249307|
|         332|   -3.852687|   -3.649107|   -4.378475|   -3.249013|
|         333|   -3.853005|   -3.649105|   -4.378702|   -3.248711|
|         334|   -3.853366|   -3.649098|   -4.378946|   -3.248403|
|         335|   -3.853769|   -3.649086|   -4.379204|   -3.248087|
|         336|   -3.854215|   -3.649066|   -4.379477|   -3.247764|
|         337|   -3.854703|   -3.649039|   -4.379762|   -3.247435|
|         338|   -3.855232|   -3.649003|   -4.380059|   -3.247100|
|         339|   -3.855802|   -3.648958|   -4.380367|   -3.246758|
|         340|   -3.856412|   -3.648901|   -4.380685|   -3.246411|
|         341|   -3.857062|   -3.648832|   -4.381011|   -3.246058|
|         342|   -3.857750|   -3.648750|   -4.381344|   -3.245701|
|         343|   -3.858476|   -3.648653|   -4.381683|   -3.245338|
|         344|   -3.859240|   -3.648541|   -4.382028|   -3.244971|
|         345|   -3.860039|   -3.648412|   -4.382377|   -3.244599|
|         346|   -3.860874|   -3.648266|   -4.382728|   -3.244224|
|         347|   -3.861743|   -3.648100|   -4.383081|   -3.243846|
|         348|   -3.862646|   -3.647913|   -4.383435|   -3.243464|
|         349|   -3.863580|   -3.647706|   -4.383788|   -3.243079|
|         350|   -3.864546|   -3.647475|   -4.384140|   -3.242692|
|         351|   -3.865542|   -3.647221|   -4.384488|   -3.242303|
|         352|   -3.866567|   -3.646942|   -4.384832|   -3.241912|
|         353|   -3.867619|   -3.646637|   -4.385171|   -3.241520|
|         354|   -3.868697|   -3.646304|   -4.385503|   -3.241126|
|         355|   -3.869800|   -3.645944|   -4.385828|   -3.240732|
|         356|   -3.870927|   -3.645554|   -4.386143|   -3.240337|
|         357|   -3.872076|   -3.645134|   -4.386448|   -3.239942|
|         358|   -3.873246|   -3.644683|   -4.386742|   -3.239548|
|         359|   -3.874434|   -3.644200|   -4.387022|   -3.239153|
|         360|   -3.875641|   -3.643684|   -4.387289|   -3.238760|
|         361|   -3.876863|   -3.643135|   -4.387541|   -3.238367|
|         362|   -3.878100|   -3.642552|   -4.387776|   -3.237976|
|         363|   -3.879350|   -3.641933|   -4.387994|   -3.237587|
|         364|   -3.880612|   -3.641279|   -4.388193|   -3.237199|
|         365|   -3.881882|   -3.640590|   -4.388372|   -3.236814|
|         366|   -3.883161|   -3.639863|   -4.388531|   -3.236431|
|         367|   -3.884445|   -3.639100|   -4.388667|   -3.236050|
|         368|   -3.885733|   -3.638300|   -4.388780|   -3.235672|
|         369|   -3.887024|   -3.637462|   -4.388869|   -3.235298|
|         370|   -3.888315|   -3.636587|   -4.388933|   -3.234926|
|         371|   -3.889604|   -3.635674|   -4.388971|   -3.234559|
|         372|   -3.890891|   -3.634724|   -4.388982|   -3.234194|
|         373|   -3.892171|   -3.633736|   -4.388966|   -3.233834|
|         374|   -3.893444|   -3.632711|   -4.388920|   -3.233477|
|         375|   -3.894708|   -3.631648|   -4.388845|   -3.233125|
|         376|   -3.895960|   -3.630549|   -4.388741|   -3.232777|
|         377|   -3.897198|   -3.629413|   -4.388605|   -3.232433|
|         378|   -3.898421|   -3.628241|   -4.388438|   -3.232094|
|         379|   -3.899626|   -3.627034|   -4.388240|   -3.231760|
|         380|   -3.900810|   -3.625791|   -4.388009|   -3.231430|
|         381|   -3.901973|   -3.624514|   -4.387745|   -3.231105|
|         382|   -3.903111|   -3.623204|   -4.387448|   -3.230786|
|         383|   -3.904223|   -3.621861|   -4.387118|   -3.230471|
|         384|   -3.905305|   -3.620486|   -4.386753|   -3.230161|
|         385|   -3.906357|   -3.619080|   -4.386355|   -3.229857|
|         386|   -3.907375|   -3.617644|   -4.385923|   -3.229557|
|         387|   -3.908358|   -3.616179|   -4.385457|   -3.229264|
|         388|   -3.909303|   -3.614686|   -4.384957|   -3.228975|
|         389|   -3.910208|   -3.613166|   -4.384422|   -3.228692|
|         390|   -3.911071|   -3.611621|   -4.383853|   -3.228414|
|         391|   -3.911889|   -3.610052|   -4.383251|   -3.228142|
|         392|   -3.912661|   -3.608459|   -4.382614|   -3.227876|
|         393|   -3.913384|   -3.606844|   -4.381944|   -3.227615|
|         394|   -3.914055|   -3.605209|   -4.381241|   -3.227360|
|         395|   -3.914674|   -3.603555|   -4.380504|   -3.227110|
|         396|   -3.915237|   -3.601884|   -4.379735|   -3.226866|
|         397|   -3.915742|   -3.600195|   -4.378934|   -3.226628|
|         398|   -3.916188|   -3.598492|   -4.378101|   -3.226395|
|         399|   -3.916573|   -3.596776|   -4.377236|   -3.226169|
|         400|   -3.916894|   -3.595048|   -4.376340|   -3.225948|
|         401|   -3.917150|   -3.593309|   -4.375414|   -3.225733|
|         402|   -3.917338|   -3.591561|   -4.374458|   -3.225523|
|         403|   -3.917457|   -3.589806|   -4.373472|   -3.225319|
|         404|   -3.917505|   -3.588044|   -4.372457|   -3.225122|
|         405|   -3.917481|   -3.586278|   -4.371414|   -3.224930|
|         406|   -3.917383|   -3.584509|   -4.370343|   -3.224745|
|         407|   -3.917209|   -3.582738|   -4.369245|   -3.224565|
|         408|   -3.916958|   -3.580967|   -4.368120|   -3.224392|
|         409|   -3.916628|   -3.579197|   -4.366969|   -3.224225|
|         410|   -3.916218|   -3.577435|   -4.365787|   -3.224065|
|         411|   -3.915725|   -3.575678|   -4.364572|   -3.223911|
|         412|   -3.915151|   -3.573926|   -4.363329|   -3.223763|
|         413|   -3.914495|   -3.572180|   -4.362059|   -3.223623|
|         414|   -3.913756|   -3.570441|   -4.360764|   -3.223489|
|         415|   -3.912933|   -3.568712|   -4.359447|   -3.223361|
|         416|   -3.912025|   -3.566993|   -4.358109|   -3.223241|
|         417|   -3.911033|   -3.565285|   -4.356749|   -3.223128|
|         418|   -3.909955|   -3.563591|   -4.355371|   -3.223022|
|         419|   -3.908792|   -3.561911|   -4.353973|   -3.222924|
|         420|   -3.907544|   -3.560246|   -4.352558|   -3.222833|
|         421|   -3.906210|   -3.558598|   -4.351125|   -3.222750|
|         422|   -3.904791|   -3.556967|   -4.349675|   -3.222674|
|         423|   -3.903287|   -3.555356|   -4.348209|   -3.222607|
|         424|   -3.901699|   -3.553764|   -4.346728|   -3.222548|
|         425|   -3.900027|   -3.552193|   -4.345231|   -3.222497|
|         426|   -3.898271|   -3.550644|   -4.343719|   -3.222455|
|         427|   -3.896433|   -3.549118|   -4.342192|   -3.222422|
|         428|   -3.894514|   -3.547615|   -4.340652|   -3.222398|
|         429|   -3.892514|   -3.546136|   -4.339097|   -3.222384|
|         430|   -3.890435|   -3.544683|   -4.337529|   -3.222379|
|         431|   -3.888278|   -3.543255|   -4.335948|   -3.222384|
|         432|   -3.886045|   -3.541854|   -4.334354|   -3.222399|
|         433|   -3.883737|   -3.540480|   -4.332747|   -3.222424|
|         434|   -3.881355|   -3.539134|   -4.331128|   -3.222461|
|         435|   -3.878902|   -3.537815|   -4.329497|   -3.222508|
|         436|   -3.876380|   -3.536526|   -4.327853|   -3.222566|
|         437|   -3.873789|   -3.535266|   -4.326197|   -3.222636|
|         438|   -3.871131|   -3.534037|   -4.324527|   -3.222719|
|         439|   -3.868410|   -3.532836|   -4.322845|   -3.222813|
|         440|   -3.865628|   -3.531666|   -4.321152|   -3.222920|
|         441|   -3.862786|   -3.530525|   -4.319448|   -3.223040|
|         442|   -3.859887|   -3.529414|   -4.317733|   -3.223173|
|         443|   -3.856933|   -3.528333|   -4.316008|   -3.223320|
|         444|   -3.853927|   -3.527281|   -4.314274|   -3.223481|
|         445|   -3.850870|   -3.526260|   -4.312530|   -3.223657|
|         446|   -3.847766|   -3.525268|   -4.310777|   -3.223847|
|         447|   -3.844616|   -3.524305|   -4.309015|   -3.224053|
|         448|   -3.841424|   -3.523371|   -4.307245|   -3.224274|
|         449|   -3.838191|   -3.522466|   -4.305467|   -3.224512|
|         450|   -3.834920|   -3.521589|   -4.303682|   -3.224765|
|         451|   -3.831614|   -3.520739|   -4.301888|   -3.225036|
|         452|   -3.828275|   -3.519917|   -4.300088|   -3.225324|
|         453|   -3.824906|   -3.519120|   -4.298281|   -3.225629|
|         454|   -3.821509|   -3.518349|   -4.296468|   -3.225953|
|         455|   -3.818086|   -3.517602|   -4.294648|   -3.226295|
|         456|   -3.814640|   -3.516879|   -4.292823|   -3.226656|
|         457|   -3.811174|   -3.516179|   -4.290993|   -3.227037|
|         458|   -3.807690|   -3.515500|   -4.289159|   -3.227437|
|         459|   -3.804190|   -3.514841|   -4.287320|   -3.227858|
|         460|   -3.800677|   -3.514200|   -4.285478|   -3.228299|
|         461|   -3.797152|   -3.513578|   -4.283633|   -3.228761|
|         462|   -3.793619|   -3.512971|   -4.281786|   -3.229245|
|         463|   -3.790079|   -3.512378|   -4.279936|   -3.229751|
|         464|   -3.786535|   -3.511798|   -4.278086|   -3.230280|
|         465|   -3.782989|   -3.511229|   -4.276236|   -3.230831|
|         466|   -3.779443|   -3.510669|   -4.274385|   -3.231405|
|         467|   -3.775899|   -3.510116|   -4.272536|   -3.232004|
|         468|   -3.772359|   -3.509569|   -4.270689|   -3.232626|
|         469|   -3.768826|   -3.509024|   -4.268845|   -3.233273|
|         470|   -3.765300|   -3.508480|   -4.267005|   -3.233945|
|         471|   -3.761785|   -3.507934|   -4.265169|   -3.234643|
|         472|   -3.758281|   -3.507385|   -4.263339|   -3.235366|
|         473|   -3.754791|   -3.506829|   -4.261516|   -3.236115|
|         474|   -3.751317|   -3.506265|   -4.259700|   -3.236892|
|         475|   -3.747859|   -3.505689|   -4.257892|   -3.237695|
|         476|   -3.744421|   -3.505099|   -4.256095|   -3.238525|
|         477|   -3.741003|   -3.504493|   -4.254308|   -3.239384|
|         478|   -3.737607|   -3.503867|   -4.252533|   -3.240270|
|         479|   -3.734235|   -3.503219|   -4.250772|   -3.241185|
|         480|   -3.730887|   -3.502546|   -4.249024|   -3.242129|
|         481|   -3.727567|   -3.501846|   -4.247292|   -3.243101|
|         482|   -3.724274|   -3.501115|   -4.245578|   -3.244104|
|         483|   -3.721010|   -3.500350|   -4.243881|   -3.245136|
|         484|   -3.717777|   -3.499549|   -4.242203|   -3.246199|
|         485|   -3.714576|   -3.498709|   -4.240546|   -3.247292|
|         486|   -3.711408|   -3.497827|   -4.238911|   -3.248415|
|         487|   -3.708273|   -3.496900|   -4.237299|   -3.249570|
|         488|   -3.705175|   -3.495926|   -4.235712|   -3.250756|
|         489|   -3.702112|   -3.494902|   -4.234151|   -3.251973|
|         490|   -3.699087|   -3.493825|   -4.232617|   -3.253223|
|         491|   -3.696101|   -3.492693|   -4.231111|   -3.254504|
|         492|   -3.693154|   -3.491503|   -4.229636|   -3.255818|
|         493|   -3.690247|   -3.490253|   -4.228192|   -3.257163|
|         494|   -3.687382|   -3.488941|   -4.226780|   -3.258542|
|         495|   -3.684558|   -3.487564|   -4.225403|   -3.259953|
|         496|   -3.681778|   -3.486122|   -4.224060|   -3.261397|
|         497|   -3.679041|   -3.484611|   -4.222754|   -3.262874|
|         498|   -3.676349|   -3.483031|   -4.221487|   -3.264384|
|         499|   -3.673702|   -3.481379|   -4.220258|   -3.265928|
|         500|   -3.671101|   -3.479655|   -4.219070|   -3.267505|
|         501|   -3.668547|   -3.477858|   -4.217923|   -3.269116|
|         502|   -3.666039|   -3.475986|   -4.216819|   -3.270760|
|         503|   -3.663580|   -3.474039|   -4.215759|   -3.272438|
|         504|   -3.661169|   -3.472016|   -4.214745|   -3.274150|
|         505|   -3.658807|   -3.469918|   -4.213777|   -3.275895|
|         506|   -3.656494|   -3.467743|   -4.212856|   -3.277674|
|         507|   -3.654231|   -3.465492|   -4.211984|   -3.279487|
|         508|   -3.652019|   -3.463166|   -4.211163|   -3.281333|
|         509|   -3.649857|   -3.460765|   -4.210391|   -3.283213|
|         510|   -3.647746|   -3.458289|   -4.209672|   -3.285126|
|         511|   -3.645688|   -3.455740|   -4.209006|   -3.287072|
|         512|   -3.643681|   -3.453118|   -4.208393|   -3.289052|
|         513|   -3.641726|   -3.450425|   -4.207835|   -3.291065|
|         514|   -3.639824|   -3.447663|   -4.207332|   -3.293110|
|         515|   -3.637975|   -3.444833|   -4.206886|   -3.295189|
|         516|   -3.636179|   -3.441936|   -4.206497|   -3.297300|
|         517|   -3.634437|   -3.438975|   -4.206166|   -3.299443|
|         518|   -3.632748|   -3.435952|   -4.205893|   -3.301618|
|         519|   -3.631113|   -3.432869|   -4.205680|   -3.303826|
|         520|   -3.629532|   -3.429728|   -4.205526|   -3.306065|
|         521|   -3.628005|   -3.426532|   -4.205433|   -3.308335|
|         522|   -3.626532|   -3.423283|   -4.205400|   -3.310636|
|         523|   -3.625114|   -3.419984|   -4.205429|   -3.312968|
|         524|   -3.623751|   -3.416638|   -4.205519|   -3.315330|
|         525|   -3.622442|   -3.413247|   -4.205672|   -3.317722|
|         526|   -3.621187|   -3.409813|   -4.205887|   -3.320143|
|         527|   -3.619988|   -3.406341|   -4.206164|   -3.322594|
|         528|   -3.618843|   -3.402832|   -4.206504|   -3.325073|
|         529|   -3.617753|   -3.399290|   -4.206907|   -3.327581|
|         530|   -3.616718|   -3.395717|   -4.207372|   -3.330117|
|         531|   -3.615737|   -3.392116|   -4.207901|   -3.332680|
|         532|   -3.614812|   -3.388490|   -4.208492|   -3.335271|
|         533|   -3.613940|   -3.384841|   -4.209146|   -3.337888|
|         534|   -3.613124|   -3.381174|   -4.209863|   -3.340531|
|         535|   -3.612362|   -3.377489|   -4.210642|   -3.343200|
|         536|   -3.611654|   -3.373790|   -4.211483|   -3.345894|
|         537|   -3.611001|   -3.370080|   -4.212387|   -3.348612|
|         538|   -3.610401|   -3.366361|   -4.213351|   -3.351355|
|         539|   -3.609856|   -3.362636|   -4.214377|   -3.354120|
|         540|   -3.609364|   -3.358906|   -4.215463|   -3.356909|
|         541|   -3.608927|   -3.355175|   -4.216608|   -3.359720|
|         542|   -3.608542|   -3.351445|   -4.217814|   -3.362553|
|         543|   -3.608211|   -3.347718|   -4.219078|   -3.365406|
|         544|   -3.607932|   -3.343995|   -4.220400|   -3.368280|
|         545|   -3.607707|   -3.340280|   -4.221779|   -3.371174|
|         546|   -3.607533|   -3.336574|   -4.223214|   -3.374087|
|         547|   -3.607413|   -3.332879|   -4.224705|   -3.377019|
|         548|   -3.607344|   -3.329197|   -4.226251|   -3.379968|
|         549|   -3.607326|   -3.325530|   -4.227850|   -3.382935|
|         550|   -3.607360|   -3.321879|   -4.229501|   -3.385918|
|         551|   -3.607445|   -3.318246|   -4.231204|   -3.388917|
|         552|   -3.607580|   -3.314633|   -4.232958|   -3.391932|
|         553|   -3.607766|   -3.311040|   -4.234760|   -3.394961|
|         554|   -3.608002|   -3.307470|   -4.236610|   -3.398003|
|         555|   -3.608288|   -3.303923|   -4.238506|   -3.401059|
|         556|   -3.608622|   -3.300401|   -4.240448|   -3.404127|
|         557|   -3.609005|   -3.296905|   -4.242433|   -3.407207|
|         558|   -3.609437|   -3.293436|   -4.244461|   -3.410297|
|         559|   -3.609917|   -3.289994|   -4.246529|   -3.413398|
|         560|   -3.610444|   -3.286582|   -4.248637|   -3.416508|
|         561|   -3.611018|   -3.283200|   -4.250782|   -3.419627|
|         562|   -3.611639|   -3.279848|   -4.252963|   -3.422755|
|         563|   -3.612306|   -3.276527|   -4.255179|   -3.425889|
|         564|   -3.613018|   -3.273239|   -4.257427|   -3.429031|
|         565|   -3.613776|   -3.269983|   -4.259705|   -3.432179|
|         566|   -3.614578|   -3.266760|   -4.262008|   -3.435332|
|         567|   -3.615425|   -3.263571|   -4.264337|   -3.438490|
|         568|   -3.616315|   -3.260415|   -4.266693|   -3.441652|
|         569|   -3.617249|   -3.257295|   -4.269073|   -3.444817|
|         570|   -3.618224|   -3.254209|   -4.271475|   -3.447984|
|         571|   -3.619242|   -3.251159|   -4.273897|   -3.451154|
|         572|   -3.620301|   -3.248145|   -4.276338|   -3.454324|
|         573|   -3.621401|   -3.245167|   -4.278794|   -3.457496|
|         574|   -3.622540|   -3.242224|   -4.281266|   -3.460667|
|         575|   -3.623720|   -3.239319|   -4.283749|   -3.463837|
|         576|   -3.624938|   -3.236449|   -4.286243|   -3.467005|
|         577|   -3.626195|   -3.233617|   -4.288745|   -3.470170|
|         578|   -3.627489|   -3.230821|   -4.291254|   -3.473333|
|         579|   -3.628820|   -3.228062|   -4.293768|   -3.476493|
|         580|   -3.630187|   -3.225340|   -4.296284|   -3.479648|
|         581|   -3.631590|   -3.222654|   -4.298801|   -3.482799|
|         582|   -3.633028|   -3.220005|   -4.301308|   -3.485945|
|         583|   -3.634501|   -3.217392|   -4.303809|   -3.489084|
|         584|   -3.636008|   -3.214816|   -4.306306|   -3.492217|
|         585|   -3.637547|   -3.212276|   -4.308797|   -3.495343|
|         586|   -3.639118|   -3.209773|   -4.311280|   -3.498461|
|         587|   -3.640720|   -3.207307|   -4.313753|   -3.501571|
|         588|   -3.642353|   -3.204876|   -4.316215|   -3.504671|
|         589|   -3.644016|   -3.202481|   -4.318664|   -3.507763|
|         590|   -3.645708|   -3.200123|   -4.321097|   -3.510844|
|         591|   -3.647428|   -3.197800|   -4.323515|   -3.513915|
|         592|   -3.649176|   -3.195513|   -4.325914|   -3.516975|
|         593|   -3.650950|   -3.193260|   -4.328290|   -3.520023|
|         594|   -3.652751|   -3.191042|   -4.330630|   -3.523060|
|         595|   -3.654577|   -3.188859|   -4.332949|   -3.526083|
|         596|   -3.656427|   -3.186710|   -4.335245|   -3.529094|
|         597|   -3.658301|   -3.184595|   -4.337517|   -3.532090|
|         598|   -3.660196|   -3.182514|   -4.339763|   -3.535073|
|         599|   -3.662114|   -3.180467|   -4.341984|   -3.538041|
|         600|   -3.664052|   -3.178454|   -4.344176|   -3.540994|
|         601|   -3.666010|   -3.176474|   -4.346340|   -3.543932|
|         602|   -3.667986|   -3.174527|   -4.348474|   -3.546854|
|         603|   -3.669981|   -3.172612|   -4.350578|   -3.549759|
|         604|   -3.671992|   -3.170730|   -4.352651|   -3.552648|
|         605|   -3.674020|   -3.168880|   -4.354692|   -3.555520|
|         606|   -3.676063|   -3.167062|   -4.356700|   -3.558374|
|         607|   -3.678121|   -3.165274|   -4.358656|   -3.561210|
|         608|   -3.680193|   -3.163517|   -4.360577|   -3.564028|
|         609|   -3.682276|   -3.161790|   -4.362465|   -3.566827|
|         610|   -3.684371|   -3.160094|   -4.364318|   -3.569608|
|         611|   -3.686476|   -3.158429|   -4.366139|   -3.572369|
|         612|   -3.688591|   -3.156793|   -4.367925|   -3.575110|
|         613|   -3.690714|   -3.155186|   -4.369677|   -3.577831|
|         614|   -3.692844|   -3.153609|   -4.371395|   -3.580532|
|         615|   -3.694980|   -3.152061|   -4.373078|   -3.583213|
|         616|   -3.697121|   -3.150541|   -4.374728|   -3.585874|
|         617|   -3.699267|   -3.149050|   -4.376343|   -3.588514|
|         618|   -3.701416|   -3.147586|   -4.377924|   -3.591132|
|         619|   -3.703567|   -3.146150|   -4.379469|   -3.593728|
|         620|   -3.705720|   -3.144740|   -4.380964|   -3.596302|
|         621|   -3.707872|   -3.143357|   -4.382425|   -3.598855|
|         622|   -3.710024|   -3.142001|   -4.383854|   -3.601386|
|         623|   -3.712174|   -3.140671|   -4.385251|   -3.603895|
|         624|   -3.714320|   -3.139367|   -4.386617|   -3.606382|
|         625|   -3.716462|   -3.138088|   -4.387952|   -3.608848|
|         626|   -3.718599|   -3.136835|   -4.389258|   -3.611291|
|         627|   -3.720729|   -3.135607|   -4.390535|   -3.613711|
|         628|   -3.722851|   -3.134404|   -4.391783|   -3.616110|
|         629|   -3.724965|   -3.133225|   -4.393003|   -3.618485|
|         630|   -3.727068|   -3.132071|   -4.394196|   -3.620839|
|         631|   -3.729161|   -3.130940|   -4.395362|   -3.623169|
|         632|   -3.731243|   -3.129832|   -4.396502|   -3.625477|
|         633|   -3.733311|   -3.128748|   -4.397617|   -3.627761|
|         634|   -3.735365|   -3.127687|   -4.398708|   -3.630023|
|         635|   -3.737403|   -3.126648|   -4.399775|   -3.632262|
|         636|   -3.739426|   -3.125632|   -4.400814|   -3.634478|
|         637|   -3.741433|   -3.124636|   -4.401821|   -3.636671|
|         638|   -3.743421|   -3.123663|   -4.402805|   -3.638840|
|         639|   -3.745390|   -3.122710|   -4.403768|   -3.640987|
|         640|   -3.747339|   -3.121779|   -4.404712|   -3.643111|
|         641|   -3.749266|   -3.120869|   -4.405637|   -3.645212|
|         642|   -3.751172|   -3.119979|   -4.406545|   -3.647290|
|         643|   -3.753053|   -3.119110|   -4.407436|   -3.649345|
|         644|   -3.754911|   -3.118260|   -4.408312|   -3.651377|
|         645|   -3.756743|   -3.117430|   -4.409172|   -3.653387|
|         646|   -3.758549|   -3.116620|   -4.410018|   -3.655373|
|         647|   -3.760328|   -3.115829|   -4.410851|   -3.657337|
|         648|   -3.762079|   -3.115057|   -4.411671|   -3.659279|
|         649|   -3.763801|   -3.114304|   -4.412479|   -3.661197|
|         650|   -3.765494|   -3.113569|   -4.413276|   -3.663094|
|         651|   -3.767156|   -3.112852|   -4.414062|   -3.664968|
|         652|   -3.768787|   -3.112153|   -4.414838|   -3.666819|
|         653|   -3.770386|   -3.111472|   -4.415605|   -3.668649|
|         654|   -3.771952|   -3.110808|   -4.416364|   -3.670456|
|         655|   -3.773484|   -3.110161|   -4.417114|   -3.672242|
|         656|   -3.774982|   -3.109531|   -4.417857|   -3.674005|
|         657|   -3.776446|   -3.108918|   -4.418594|   -3.675747|
|         658|   -3.777874|   -3.108321|   -4.419324|   -3.677468|
|         659|   -3.779266|   -3.107741|   -4.420048|   -3.679167|
|         660|   -3.780622|   -3.107176|   -4.420765|   -3.680844|
|         661|   -3.781941|   -3.106626|   -4.421472|   -3.682501|
|         662|   -3.783223|   -3.106092|   -4.422174|   -3.684137|
|         663|   -3.784466|   -3.105573|   -4.422872|   -3.685752|
|         664|   -3.785672|   -3.105069|   -4.423567|   -3.687346|
|         665|   -3.786838|   -3.104580|   -4.424260|   -3.688920|
|         666|   -3.787965|   -3.104105|   -4.424951|   -3.690474|
|         667|   -3.789053|   -3.103645|   -4.425642|   -3.692008|
|         668|   -3.790101|   -3.103199|   -4.426332|   -3.693522|
|         669|   -3.791124|   -3.102759|   -4.426931|   -3.695016|
|         670|   -3.792143|   -3.102315|   -4.427302|   -3.696492|
|         671|   -3.793123|   -3.101882|   -4.427592|   -3.697950|
|         672|   -3.794063|   -3.101462|   -4.427836|   -3.699391|
|         673|   -3.794964|   -3.101054|   -4.428055|   -3.700815|
|         674|   -3.795826|   -3.100659|   -4.428266|   -3.702221|
|         675|   -3.796648|   -3.100278|   -4.428480|   -3.703611|
|         676|   -3.797432|   -3.099909|   -4.428703|   -3.704984|
|         677|   -3.798176|   -3.099554|   -4.428942|   -3.706340|
|         678|   -3.798882|   -3.099211|   -4.429200|   -3.707679|
|         679|   -3.799568|   -3.098871|   -4.429365|   -3.709003|
|         680|   -3.800237|   -3.098533|   -4.429372|   -3.710312|
|         681|   -3.800869|   -3.098207|   -4.429324|   -3.711606|
|         682|   -3.801487|   -3.097880|   -4.429089|   -3.712885|
|         683|   -3.802081|   -3.097559|   -4.428701|   -3.714152|
|         684|   -3.802639|   -3.097249|   -4.428242|   -3.715406|
|         685|   -3.803160|   -3.096951|   -4.427750|   -3.716646|
|         686|   -3.803645|   -3.096665|   -4.427249|   -3.717874|
|         687|   -3.804095|   -3.096390|   -4.426759|   -3.719090|
|         688|   -3.804510|   -3.096128|   -4.426292|   -3.720292|
|         689|   -3.804889|   -3.095878|   -4.425861|   -3.721483|
|         690|   -3.805234|   -3.095640|   -4.425472|   -3.722660|
|         691|   -3.805544|   -3.095414|   -4.425132|   -3.723825|
|         692|   -3.805820|   -3.095200|   -4.424846|   -3.724977|
|         693|   -3.806061|   -3.094997|   -4.424618|   -3.726117|
|         694|   -3.806269|   -3.094806|   -4.424450|   -3.727244|
|         695|   -3.806444|   -3.094627|   -4.424343|   -3.728359|
|         696|   -3.806585|   -3.094458|   -4.424300|   -3.729461|
|         697|   -3.806694|   -3.094300|   -4.424320|   -3.730550|
|         698|   -3.806770|   -3.094154|   -4.424404|   -3.731627|
|         699|   -3.806814|   -3.094018|   -4.424552|   -3.732692|
|         700|   -3.806827|   -3.093893|   -4.424763|   -3.733744|
|         701|   -3.806808|   -3.093778|   -4.425037|   -3.734783|
|         702|   -3.806760|   -3.093673|   -4.425372|   -3.735811|
|         703|   -3.806681|   -3.093579|   -4.425767|   -3.736826|
|         704|   -3.806572|   -3.093495|   -4.426220|   -3.737828|
|         705|   -3.806435|   -3.093420|   -4.426730|   -3.738819|
|         706|   -3.806269|   -3.093356|   -4.427296|   -3.739797|
|         707|   -3.806076|   -3.093301|   -4.427914|   -3.740764|
|         708|   -3.805855|   -3.093256|   -4.428584|   -3.741719|
|         709|   -3.805608|   -3.093220|   -4.429304|   -3.742661|
|         710|   -3.805334|   -3.093193|   -4.430070|   -3.743593|
|         711|   -3.805035|   -3.093176|   -4.430882|   -3.744512|
|         712|   -3.804712|   -3.093168|   -4.431737|   -3.745420|
|         713|   -3.804364|   -3.093169|   -4.432633|   -3.746317|
|         714|   -3.803994|   -3.093178|   -4.433568|   -3.747203|
|         715|   -3.803600|   -3.093197|   -4.434540|   -3.748077|
|         716|   -3.803187|   -3.093223|   -4.435525|   -3.748940|
|         717|   -3.802763|   -3.093254|   -4.436433|   -3.749794|
|         718|   -3.802320|   -3.093293|   -4.437325|   -3.750637|
|         719|   -3.801856|   -3.093341|   -4.438215|   -3.751470|
|         720|   -3.801374|   -3.093397|   -4.439110|   -3.752294|
|         721|   -3.800874|   -3.093461|   -4.440019|   -3.753108|
|         722|   -3.800356|   -3.093534|   -4.440943|   -3.753913|
|         723|   -3.799822|   -3.093615|   -4.441887|   -3.754708|
|         724|   -3.799271|   -3.093705|   -4.442851|   -3.755494|
|         725|   -3.798705|   -3.093803|   -4.443837|   -3.756271|
|         726|   -3.798123|   -3.093909|   -4.444845|   -3.757040|
|         727|   -3.797528|   -3.094024|   -4.445874|   -3.757799|
|         728|   -3.796918|   -3.094146|   -4.446926|   -3.758550|
|         729|   -3.796296|   -3.094276|   -4.447999|   -3.759293|
|         730|   -3.795660|   -3.094415|   -4.449094|   -3.760027|
|         731|   -3.795013|   -3.094561|   -4.450209|   -3.760752|
|         732|   -3.794354|   -3.094715|   -4.451344|   -3.761470|
|         733|   -3.793685|   -3.094877|   -4.452498|   -3.762179|
|         734|   -3.793005|   -3.095046|   -4.453672|   -3.762881|
|         735|   -3.792315|   -3.095223|   -4.454863|   -3.763574|
|         736|   -3.791616|   -3.095408|   -4.456072|   -3.764260|
|         737|   -3.790908|   -3.095600|   -4.457297|   -3.764938|
|         738|   -3.790192|   -3.095799|   -4.458539|   -3.765609|
|         739|   -3.789469|   -3.096006|   -4.459796|   -3.766273|
|         740|   -3.788738|   -3.096219|   -4.461068|   -3.766929|
|         741|   -3.788000|   -3.096440|   -4.462354|   -3.767578|
|         742|   -3.787256|   -3.096668|   -4.463653|   -3.768221|
|         743|   -3.786506|   -3.096903|   -4.464965|   -3.768856|
|         744|   -3.785751|   -3.097145|   -4.466290|   -3.769485|
|         745|   -3.784991|   -3.097393|   -4.467626|   -3.770107|
|         746|   -3.784227|   -3.097649|   -4.468973|   -3.770722|
|         747|   -3.783458|   -3.097911|   -4.470331|   -3.771331|
|         748|   -3.782686|   -3.098180|   -4.471699|   -3.771934|
|         749|   -3.781911|   -3.098455|   -4.473077|   -3.772531|
|         750|   -3.781133|   -3.098737|   -4.474463|   -3.773121|
|         751|   -3.780352|   -3.099026|   -4.475859|   -3.773706|
|         752|   -3.779570|   -3.099320|   -4.477262|   -3.774285|
|         753|   -3.778786|   -3.099622|   -4.478674|   -3.774858|
|         754|   -3.778000|   -3.099929|   -4.480092|   -3.775425|
|         755|   -3.777213|   -3.100243|   -4.481518|   -3.775987|
|         756|   -3.776426|   -3.100562|   -4.482951|   -3.776544|
|         757|   -3.775639|   -3.100888|   -4.484389|   -3.777095|
|         758|   -3.774851|   -3.101220|   -4.485834|   -3.777641|
|         759|   -3.774063|   -3.101558|   -4.487284|   -3.778182|
|         760|   -3.773277|   -3.101901|   -4.488740|   -3.778719|
|         761|   -3.772491|   -3.102251|   -4.490201|   -3.779250|
|         762|   -3.771706|   -3.102606|   -4.491666|   -3.779776|
|         763|   -3.770922|   -3.102967|   -4.493136|   -3.780298|
|         764|   -3.770141|   -3.103334|   -4.494611|   -3.780815|
|         765|   -3.769361|   -3.103706|   -4.496089|   -3.781327|
|         766|   -3.768583|   -3.104083|   -4.497571|   -3.781835|
|         767|   -3.767808|   -3.104466|   -4.499057|   -3.782339|
|         768|   -3.767035|   -3.104855|   -4.500547|   -3.782838|
|         769|   -3.766265|   -3.105249|   -4.502039|   -3.783334|
|         770|   -3.765498|   -3.105648|   -4.503535|   -3.783825|
|         771|   -3.764734|   -3.106052|   -4.505034|   -3.784313|
|         772|   -3.763974|   -3.106462|   -4.506536|   -3.784797|
|         773|   -3.763217|   -3.106876|   -4.508040|   -3.785277|
|         774|   -3.762464|   -3.107296|   -4.509547|   -3.785754|
|         775|   -3.761715|   -3.107720|   -4.511056|   -3.786227|
|         776|   -3.760970|   -3.108150|   -4.512567|   -3.786697|
|         777|   -3.760229|   -3.108584|   -4.514081|   -3.787163|
|         778|   -3.759492|   -3.109023|   -4.515597|   -3.787626|
|         779|   -3.758761|   -3.109467|   -4.517114|   -3.788086|
|         780|   -3.758033|   -3.109916|   -4.518634|   -3.788542|
|         781|   -3.757311|   -3.110369|   -4.520155|   -3.788996|
|         782|   -3.756593|   -3.110827|   -4.521678|   -3.789447|
|         783|   -3.755885|   -3.111288|   -4.523182|   -3.789895|
|         784|   -3.755183|   -3.111755|   -4.524665|   -3.790340|
|         785|   -3.754486|   -3.112225|   -4.526128|   -3.790784|
|         786|   -3.753795|   -3.112701|   -4.527574|   -3.791225|
|         787|   -3.753110|   -3.113180|   -4.529007|   -3.791664|
|         788|   -3.752430|   -3.113664|   -4.530427|   -3.792101|
|         789|   -3.751757|   -3.114153|   -4.531837|   -3.792535|
|         790|   -3.751090|   -3.114646|   -4.533238|   -3.792968|
|         791|   -3.750429|   -3.115143|   -4.534631|   -3.793399|
|         792|   -3.749774|   -3.115644|   -4.536018|   -3.793828|
|         793|   -3.749126|   -3.116149|   -4.537399|   -3.794255|
|         794|   -3.748483|   -3.116659|   -4.538776|   -3.794681|
|         795|   -3.747847|   -3.117172|   -4.540149|   -3.795104|
|         796|   -3.747218|   -3.117689|   -4.541519|   -3.795526|
|         797|   -3.746595|   -3.118211|   -4.542886|   -3.795946|
|         798|   -3.745978|   -3.118736|   -4.544252|   -3.796365|
|         799|   -3.745368|   -3.119265|   -4.545617|   -3.796782|
|         800|   -3.744765|   -3.119798|   -4.546981|   -3.797197|
|         801|   -3.744167|   -3.120334|   -4.548345|   -3.797611|
|         802|   -3.743577|   -3.120874|   -4.549711|   -3.798024|
|         803|   -3.742993|   -3.121418|   -4.551077|   -3.798435|
|         804|   -3.742416|   -3.121965|   -4.552445|   -3.798844|
|         805|   -3.741845|   -3.122516|   -4.553814|   -3.799252|
|         806|   -3.741281|   -3.123070|   -4.555186|   -3.799659|
|         807|   -3.740723|   -3.123627|   -4.556560|   -3.800064|
|         808|   -3.740172|   -3.124188|   -4.557936|   -3.800468|
|         809|   -3.739628|   -3.124752|   -4.559316|   -3.800870|
|         810|   -3.739090|   -3.125319|   -4.560698|   -3.801272|
|         811|   -3.738559|   -3.125890|   -4.562084|   -3.801672|
|         812|   -3.738035|   -3.126463|   -4.563474|   -3.802071|
|         813|   -3.737517|   -3.127040|   -4.564867|   -3.802469|
|         814|   -3.737006|   -3.127620|   -4.566265|   -3.802865|
|         815|   -3.736502|   -3.128202|   -4.567666|   -3.803261|
|         816|   -3.736004|   -3.128788|   -4.569072|   -3.803655|
|         817|   -3.735513|   -3.129376|   -4.570483|   -3.804048|
|         818|   -3.735029|   -3.129967|   -4.571898|   -3.804440|
|         819|   -3.734551|   -3.130561|   -4.573317|   -3.804831|
|         820|   -3.734080|   -3.131158|   -4.574741|   -3.805222|
|         821|   -3.733615|   -3.131757|   -4.576170|   -3.805611|
|         822|   -3.733157|   -3.132359|   -4.577603|   -3.805999|
|         823|   -3.732706|   -3.132964|   -4.579041|   -3.806386|
|         824|   -3.732261|   -3.133571|   -4.580483|   -3.806773|
|         825|   -3.731822|   -3.134181|   -4.581930|   -3.807158|
|         826|   -3.731390|   -3.134793|   -4.583381|   -3.807543|
|         827|   -3.730965|   -3.135408|   -4.584836|   -3.807927|
|         828|   -3.730546|   -3.136025|   -4.586296|   -3.808310|
|         829|   -3.730134|   -3.136644|   -4.587760|   -3.808692|
|         830|   -3.729728|   -3.137266|   -4.589228|   -3.809074|
|         831|   -3.729328|   -3.137890|   -4.590701|   -3.809455|
|         832|   -3.728936|   -3.138516|   -4.592169|   -3.809835|
|         833|   -3.728552|   -3.139145|   -4.593606|   -3.810214|
|         834|   -3.728174|   -3.139776|   -4.595031|   -3.810594|
|         835|   -3.727804|   -3.140409|   -4.596445|   -3.810972|
|         836|   -3.727439|   -3.141045|   -4.597849|   -3.811351|
|         837|   -3.727082|   -3.141682|   -4.599242|   -3.811729|
|         838|   -3.726731|   -3.142322|   -4.600627|   -3.812107|
|         839|   -3.726386|   -3.142964|   -4.602004|   -3.812485|
|         840|   -3.726048|   -3.143608|   -4.603374|   -3.812863|
|         841|   -3.725716|   -3.144253|   -4.604738|   -3.813240|
|         842|   -3.725391|   -3.144901|   -4.606097|   -3.813617|
|         843|   -3.725072|   -3.145551|   -4.607451|   -3.813994|
|         844|   -3.724760|   -3.146203|   -4.608801|   -3.814371|
|         845|   -3.724453|   -3.146856|   -4.610148|   -3.814747|
|         846|   -3.724154|   -3.147511|   -4.611492|   -3.815123|
|         847|   -3.723860|   -3.148168|   -4.612834|   -3.815499|
|         848|   -3.723572|   -3.148827|   -4.614174|   -3.815875|
|         849|   -3.723291|   -3.149487|   -4.615513|   -3.816251|
|         850|   -3.723016|   -3.150149|   -4.616852|   -3.816626|
|         851|   -3.722746|   -3.150813|   -4.618191|   -3.817001|
|         852|   -3.722483|   -3.151478|   -4.619530|   -3.817376|
|         853|   -3.722226|   -3.152145|   -4.620869|   -3.817751|
|         854|   -3.721974|   -3.152813|   -4.622210|   -3.818126|
|         855|   -3.721729|   -3.153482|   -4.623552|   -3.818500|
|         856|   -3.721489|   -3.154153|   -4.624895|   -3.818875|
|         857|   -3.721256|   -3.154825|   -4.626241|   -3.819249|
|         858|   -3.721028|   -3.155499|   -4.627589|   -3.819623|
|         859|   -3.720805|   -3.156174|   -4.628939|   -3.819997|
|         860|   -3.720589|   -3.156850|   -4.630291|   -3.820370|
|         861|   -3.720378|   -3.157527|   -4.631646|   -3.820744|
|         862|   -3.720172|   -3.158206|   -4.633005|   -3.821117|
|         863|   -3.719973|   -3.158886|   -4.634366|   -3.821491|
|         864|   -3.719778|   -3.159567|   -4.635730|   -3.821864|
|         865|   -3.719590|   -3.160248|   -4.637098|   -3.822237|
|         866|   -3.719406|   -3.160931|   -4.638468|   -3.822609|
|         867|   -3.719229|   -3.161615|   -4.639842|   -3.822982|
|         868|   -3.719056|   -3.162300|   -4.641219|   -3.823355|
|         869|   -3.718889|   -3.162986|   -4.642600|   -3.823727|
|         870|   -3.718727|   -3.163673|   -4.643984|   -3.824100|
|         871|   -3.718571|   -3.164361|   -4.645371|   -3.824472|
|         872|   -3.718419|   -3.165049|   -4.646762|   -3.824844|
|         873|   -3.718273|   -3.165738|   -4.648155|   -3.825216|
|         874|   -3.718132|   -3.166429|   -4.649552|   -3.825588|
|         875|   -3.717997|   -3.167119|   -4.650952|   -3.825960|
|         876|   -3.717866|   -3.167811|   -4.652355|   -3.826332|
|         877|   -3.717740|   -3.168503|   -4.653760|   -3.826703|
|         878|   -3.717620|   -3.169196|   -4.655169|   -3.827075|
|         879|   -3.717504|   -3.169890|   -4.656580|   -3.827447|
|         880|   -3.717393|   -3.170584|   -4.657994|   -3.827818|
|         881|   -3.717287|   -3.171279|   -4.659411|   -3.828189|
|         882|   -3.717186|   -3.171974|   -4.660830|   -3.828561|
|         883|   -3.717090|   -3.172670|   -4.662251|   -3.828932|
|         884|   -3.716999|   -3.173367|   -4.663674|   -3.829303|
|         885|   -3.716912|   -3.174063|   -4.665099|   -3.829674|
|         886|   -3.716831|   -3.174761|   -4.666526|   -3.830046|
|         887|   -3.716754|   -3.175458|   -4.667955|   -3.830417|
|         888|   -3.716681|   -3.176157|   -4.669385|   -3.830788|
|         889|   -3.716613|   -3.176855|   -4.670817|   -3.831159|
|         890|   -3.716550|   -3.177554|   -4.672250|   -3.831530|
|         891|   -3.716491|   -3.178253|   -4.673684|   -3.831901|
|         892|   -3.716437|   -3.178952|   -4.675119|   -3.832271|
|         893|   -3.716388|   -3.179652|   -4.676555|   -3.832642|
|         894|   -3.716343|   -3.180352|   -4.677992|   -3.833013|
|         895|   -3.716302|   -3.181052|   -4.679429|   -3.833384|
|         896|   -3.716266|   -3.181752|   -4.680867|   -3.833755|
|         897|   -3.716234|   -3.182452|   -4.682305|   -3.834126|
|         898|   -3.716206|   -3.183153|   -4.683743|   -3.834496|
|         899|   -3.716183|   -3.183853|   -4.685181|   -3.834867|
|         900|   -3.716164|   -3.184554|   -4.686619|   -3.835238|
|         901|   -3.716149|   -3.185255|   -4.688056|   -3.835609|
|         902|   -3.716139|   -3.185955|   -4.689493|   -3.835979|
|         903|   -3.716132|   -3.186656|   -4.690930|   -3.836350|
|         904|   -3.716130|   -3.187357|   -4.692366|   -3.836721|
|         905|   -3.716132|   -3.188057|   -4.693801|   -3.837091|
|         906|   -3.716138|   -3.188758|   -4.695235|   -3.837462|
|         907|   -3.716148|   -3.189459|   -4.696667|   -3.837832|
|         908|   -3.716162|   -3.190159|   -4.698099|   -3.838203|
|         909|   -3.716180|   -3.190859|   -4.699529|   -3.838574|
|         910|   -3.716202|   -3.191559|   -4.700958|   -3.838944|
|         911|   -3.716228|   -3.192259|   -4.702385|   -3.839315|
|         912|   -3.716258|   -3.192959|   -4.703810|   -3.839686|
|         913|   -3.716293|   -3.193658|   -4.705155|   -3.840056|
|         914|   -3.716332|   -3.194358|   -4.706456|   -3.840427|
|         915|   -3.716376|   -3.195057|   -4.707741|   -3.840798|
|         916|   -3.716423|   -3.195757|   -4.709009|   -3.841170|
|         917|   -3.716475|   -3.196456|   -4.710264|   -3.841541|
|         918|   -3.716530|   -3.197154|   -4.711505|   -3.841913|
|         919|   -3.716589|   -3.197853|   -4.712734|   -3.842285|
|         920|   -3.716652|   -3.198551|   -4.713953|   -3.842657|
|         921|   -3.716719|   -3.199249|   -4.715161|   -3.843029|
|         922|   -3.716789|   -3.199946|   -4.716360|   -3.843402|
|         923|   -3.716864|   -3.200644|   -4.717550|   -3.843775|
|         924|   -3.716942|   -3.201340|   -4.718732|   -3.844147|
|         925|   -3.717023|   -3.202037|   -4.719907|   -3.844521|
|         926|   -3.717109|   -3.202732|   -4.721075|   -3.844894|
|         927|   -3.717197|   -3.203428|   -4.722238|   -3.845267|
|         928|   -3.717290|   -3.204122|   -4.723395|   -3.845641|
|         929|   -3.717386|   -3.204817|   -4.724547|   -3.846014|
|         930|   -3.717485|   -3.205511|   -4.725695|   -3.846388|
|         931|   -3.717588|   -3.206204|   -4.726839|   -3.846762|
|         932|   -3.717695|   -3.206896|   -4.727979|   -3.847136|
|         933|   -3.717805|   -3.207588|   -4.729116|   -3.847510|
|         934|   -3.717918|   -3.208279|   -4.730251|   -3.847884|
|         935|   -3.718034|   -3.208970|   -4.731383|   -3.848259|
|         936|   -3.718154|   -3.209660|   -4.732514|   -3.848633|
|         937|   -3.718277|   -3.210349|   -4.733643|   -3.849008|
|         938|   -3.718404|   -3.211037|   -4.734771|   -3.849383|
|         939|   -3.718533|   -3.211725|   -4.735897|   -3.849757|
|         940|   -3.718666|   -3.212412|   -4.737023|   -3.850132|
|         941|   -3.718802|   -3.213098|   -4.738149|   -3.850507|
|         942|   -3.718941|   -3.213783|   -4.739274|   -3.850882|
|         943|   -3.719083|   -3.214467|   -4.740399|   -3.851257|
|         944|   -3.719228|   -3.215151|   -4.741523|   -3.851633|
|         945|   -3.719376|   -3.215833|   -4.742648|   -3.852008|
|         946|   -3.719527|   -3.216515|   -4.743773|   -3.852383|
|         947|   -3.719681|   -3.217196|   -4.744898|   -3.852758|
|         948|   -3.719838|   -3.217876|   -4.746023|   -3.853133|
|         949|   -3.719998|   -3.218555|   -4.747149|   -3.853509|
|         950|   -3.720161|   -3.219232|   -4.748276|   -3.853884|
|         951|   -3.720327|   -3.219909|   -4.749403|   -3.854259|
|         952|   -3.720496|   -3.220585|   -4.750530|   -3.854634|
|         953|   -3.720667|   -3.221260|   -4.751658|   -3.855010|
|         954|   -3.720842|   -3.221934|   -4.752787|   -3.855385|
|         955|   -3.721019|   -3.222606|   -4.753916|   -3.855760|
|         956|   -3.721199|   -3.223278|   -4.755046|   -3.856136|
|         957|   -3.721381|   -3.223948|   -4.756176|   -3.856511|
|         958|   -3.721567|   -3.224618|   -4.757307|   -3.856886|
|         959|   -3.721755|   -3.225286|   -4.758439|   -3.857261|
|         960|   -3.721945|   -3.225953|   -4.759570|   -3.857636|
|         961|   -3.722138|   -3.226619|   -4.760703|   -3.858011|
|         962|   -3.722334|   -3.227284|   -4.761835|   -3.858386|
|         963|   -3.722533|   -3.227947|   -4.762967|   -3.858761|
|         964|   -3.722734|   -3.228609|   -4.764100|   -3.859136|
|         965|   -3.722937|   -3.229271|   -4.765233|   -3.859511|
|         966|   -3.723144|   -3.229930|   -4.766366|   -3.859886|
|         967|   -3.723352|   -3.230589|   -4.767498|   -3.860261|
|         968|   -3.723563|   -3.231246|   -4.768631|   -3.860636|
|         969|   -3.723777|   -3.231902|   -4.769763|   -3.861010|
|         970|   -3.723993|   -3.232557|   -4.770894|   -3.861385|
|         971|   -3.724211|   -3.233211|   -4.772025|   -3.861759|
|         972|   -3.724432|   -3.233863|   -4.773156|   -3.862134|
|         973|   -3.724655|   -3.234513|   -4.774286|   -3.862508|
|         974|   -3.724881|   -3.235163|   -4.775415|   -3.862882|
|         975|   -3.725109|   -3.235811|   -4.776542|   -3.863256|
|         976|   -3.725339|   -3.236458|   -4.777669|   -3.863630|
|         977|   -3.725572|   -3.237103|   -4.778795|   -3.864004|
|         978|   -3.725807|   -3.237747|   -4.779919|   -3.864378|
|         979|   -3.726044|   -3.238390|   -4.781042|   -3.864752|
|         980|   -3.726283|   -3.239031|   -4.782164|   -3.865125|
|         981|   -3.726525|   -3.239670|   -4.783284|   -3.865499|
|         982|   -3.726769|   -3.240309|   -4.784402|   -3.865872|
|         983|   -3.727015|   -3.240946|   -4.785518|   -3.866246|
|         984|   -3.727263|   -3.241581|   -4.786633|   -3.866619|
|         985|   -3.727513|   -3.242215|   -4.787745|   -3.866992|
|         986|   -3.727766|   -3.242847|   -4.788855|   -3.867365|
|         987|   -3.728020|   -3.243478|   -4.789963|   -3.867737|
|         988|   -3.728277|   -3.244108|   -4.791069|   -3.868110|
|         989|   -3.728536|   -3.244736|   -4.792172|   -3.868483|
|         990|   -3.728797|   -3.245362|   -4.793272|   -3.868855|
|         991|   -3.729060|   -3.245987|   -4.794370|   -3.869227|
|         992|   -3.729326|   -3.246611|   -4.795362|   -3.869599|
[...]
|        2710|   -4.245797|   -4.269779|   -5.395390|   -4.055888|
|        2711|   -4.245831|   -4.270304|   -5.395618|   -4.055915|
|        2712|   -4.245864|   -4.270828|   -5.395846|   -4.055941|
|        2713|   -4.245898|   -4.271351|   -5.396073|   -4.055968|
|        2714|   -4.245931|   -4.271873|   -5.396300|   -4.055994|
|        2715|   -4.245965|   -4.272394|   -5.396527|   -4.056020|
|        2716|   -4.245998|   -4.272913|   -5.396754|   -4.056047|
|        2717|   -4.246031|   -4.273431|   -5.396980|   -4.056073|
|        2718|   -4.246064|   -4.273948|   -5.397206|   -4.056099|
|        2719|   -4.246097|   -4.274464|   -5.397432|   -4.056126|
|        2720|   -4.246129|   -4.274979|   -5.397658|   -4.056152|
|        2721|   -4.246162|   -4.275492|   -5.397883|   -4.056178|
|        2722|   -4.246194|   -4.276004|   -5.398108|   -4.056205|
|        2723|   -4.246226|   -4.276516|   -5.398333|   -4.056231|
|        2724|   -4.246258|   -4.277025|   -5.398557|   -4.056257|
|        2725|   -4.246290|   -4.277534|   -5.398781|   -4.056284|
|        2726|   -4.246322|   -4.278041|   -5.399005|   -4.056310|
|        2727|   -4.246354|   -4.278548|   -5.399229|   -4.056336|
|        2728|   -4.246386|   -4.279053|   -5.399452|   -4.056363|
|        2729|   -4.246417|   -4.279556|   -5.399675|   -4.056389|
|        2730|   -4.246448|   -4.280059|   -5.399898|   -4.056415|
|        2731|   -4.246479|   -4.280560|   -5.400121|   -4.056442|
|        2732|   -4.246511|   -4.281060|   -5.400343|   -4.056468|
|        2733|   -4.246541|   -4.281559|   -5.400565|   -4.056494|
|        2734|   -4.246572|   -4.282057|   -5.400787|   -4.056521|
|        2735|   -4.246603|   -4.282553|   -5.401008|   -4.056547|
|        2736|   -4.246633|   -4.283049|   -5.401229|   -4.056573|
|        2737|   -4.246664|   -4.283543|   -5.401450|   -4.056599|
|        2738|   -4.246694|   -4.284036|   -5.401671|   -4.056626|
|        2739|   -4.246724|   -4.284527|   -5.401891|   -4.056652|
|        2740|   -4.246754|   -4.285017|   -5.402111|   -4.056678|
|        2741|   -4.246784|   -4.285507|   -5.402331|   -4.056704|
|        2742|   -4.246814|   -4.285994|   -5.402551|   -4.056731|
|        2743|   -4.246843|   -4.286481|   -5.402770|   -4.056757|
|        2744|   -4.246873|   -4.286967|   -5.402989|   -4.056783|
|        2745|   -4.246902|   -4.287451|   -5.403208|   -4.056809|
|        2746|   -4.246932|   -4.287934|   -5.403426|   -4.056836|
|        2747|   -4.246961|   -4.288415|   -5.403645|   -4.056862|
|        2748|   -4.246990|   -4.288896|   -5.403862|   -4.056888|
|        2749|   -4.247019|   -4.289375|   -5.404080|   -4.056914|
|        2750|   -4.247047|   -4.289853|   -5.404298|   -4.056941|
|        2751|   -4.247076|   -4.290330|   -5.404515|   -4.056967|
|        2752|   -4.247104|   -4.290805|   -5.404732|   -4.056993|
|        2753|   -4.247133|   -4.291280|   -5.404948|   -4.057019|
|        2754|   -4.247161|   -4.291753|   -5.405165|   -4.057046|
|        2755|   -4.247189|   -4.292224|   -5.405381|   -4.057072|
|        2756|   -4.247217|   -4.292695|   -5.405596|   -4.057098|
|        2757|   -4.247245|   -4.293164|   -5.405812|   -4.057124|
|        2758|   -4.247273|   -4.293632|   -5.406027|   -4.057150|
|        2759|   -4.247300|   -4.294099|   -5.406242|   -4.057177|
|        2760|   -4.247328|   -4.294565|   -5.406457|   -4.057203|
|        2761|   -4.247355|   -4.295029|   -5.406672|   -4.057229|
|        2762|   -4.247383|   -4.295492|   -5.406886|   -4.057255|
|        2763|   -4.247410|   -4.295954|   -5.407100|   -4.057281|
|        2764|   -4.247437|   -4.296414|   -5.407313|   -4.057308|
|        2765|   -4.247464|   -4.296873|   -5.407527|   -4.057334|
|        2766|   -4.247490|   -4.297331|   -5.407740|   -4.057360|
|        2767|   -4.247517|   -4.297788|   -5.407953|   -4.057386|
|        2768|   -4.247544|   -4.298244|   -5.408166|   -4.057412|
|        2769|   -4.247570|   -4.298698|   -5.408378|   -4.057439|
|        2770|   -4.247596|   -4.299151|   -5.408590|   -4.057465|
|        2771|   -4.247622|   -4.299603|   -5.408802|   -4.057491|
|        2772|   -4.247648|   -4.300053|   -5.409013|   -4.057517|
|        2773|   -4.247674|   -4.300502|   -5.409225|   -4.057543|
|        2774|   -4.247700|   -4.300950|   -5.409436|   -4.057569|
|        2775|   -4.247726|   -4.301397|   -5.409647|   -4.057596|
|        2776|   -4.247751|   -4.301842|   -5.409857|   -4.057622|
|        2777|   -4.247777|   -4.302286|   -5.410067|   -4.057648|
|        2778|   -4.247802|   -4.302729|   -5.410278|   -4.057674|
|        2779|   -4.247827|   -4.303171|   -5.410487|   -4.057700|
|        2780|   -4.247853|   -4.303611|   -5.410697|   -4.057726|
|        2781|   -4.247878|   -4.304050|   -5.410906|   -4.057752|
|        2782|   -4.247902|   -4.304488|   -5.411115|   -4.057779|
|        2783|   -4.247927|   -4.304924|   -5.411324|   -4.057805|
|        2784|   -4.247952|   -4.305360|   -5.411532|   -4.057831|
|        2785|   -4.247976|   -4.305794|   -5.411740|   -4.057857|
|        2786|   -4.248001|   -4.306226|   -5.411948|   -4.057883|
|        2787|   -4.248025|   -4.306658|   -5.412156|   -4.057909|
|        2788|   -4.248049|   -4.307088|   -5.412364|   -4.057935|
|        2789|   -4.248073|   -4.307517|   -5.412571|   -4.057961|
|        2790|   -4.248097|   -4.307944|   -5.412778|   -4.057987|
|        2791|   -4.248121|   -4.308371|   -5.412984|   -4.058014|
|        2792|   -4.248145|   -4.308796|   -5.413191|   -4.058040|
|        2793|   -4.248169|   -4.309220|   -5.413397|   -4.058066|
|        2794|   -4.248192|   -4.309642|   -5.413603|   -4.058092|
|        2795|   -4.248215|   -4.310063|   -5.413808|   -4.058118|
|        2796|   -4.248239|   -4.310483|   -5.414014|   -4.058144|
|        2797|   -4.248262|   -4.310902|   -5.414219|   -4.058170|
|        2798|   -4.248285|   -4.311319|   -5.414424|   -4.058196|
|        2799|   -4.248308|   -4.311736|   -5.414629|   -4.058222|
|        2800|   -4.248331|   -4.312150|   -5.414833|   -4.058248|
|        2801|   -4.248353|   -4.312564|   -5.415037|   -4.058274|
|        2802|   -4.248376|   -4.312976|   -5.415241|   -4.058301|
|        2803|   -4.248398|   -4.313387|   -5.415445|   -4.058327|
|        2804|   -4.248421|   -4.313797|   -5.415648|   -4.058353|
|        2805|   -4.248443|   -4.314206|   -5.415851|   -4.058379|
|        2806|   -4.248465|   -4.314613|   -5.416054|   -4.058405|
|        2807|   -4.248487|   -4.315019|   -5.416257|   -4.058431|
|        2808|   -4.248509|   -4.315424|   -5.416459|   -4.058457|
|        2809|   -4.248531|   -4.315827|   -5.416661|   -4.058483|
|        2810|   -4.248553|   -4.316229|   -5.416863|   -4.058509|
|        2811|   -4.248574|   -4.316630|   -5.417064|   -4.058535|
|        2812|   -4.248596|   -4.317029|   -5.417266|   -4.058561|
|        2813|   -4.248617|   -4.317428|   -5.417467|   -4.058587|
|        2814|   -4.248639|   -4.317825|   -5.417668|   -4.058613|
|        2815|   -4.248660|   -4.318221|   -5.417868|   -4.058639|
|        2816|   -4.248681|   -4.318615|   -5.418069|   -4.058665|
|        2817|   -4.248702|   -4.319008|   -5.418269|   -4.058691|
|        2818|   -4.248723|   -4.319400|   -5.418469|   -4.058717|
|        2819|   -4.248744|   -4.319791|   -5.418668|   -4.058743|
|        2820|   -4.248764|   -4.320180|   -5.418868|   -4.058769|
|        2821|   -4.248785|   -4.320568|   -5.419067|   -4.058795|
|        2822|   -4.248805|   -4.320955|   -5.419266|   -4.058821|
|        2823|   -4.248826|   -4.321341|   -5.419464|   -4.058847|
|        2824|   -4.248846|   -4.321725|   -5.419663|   -4.058873|
|        2825|   -4.248866|   -4.322108|   -5.419861|   -4.058899|
|        2826|   -4.248886|   -4.322490|   -5.420059|   -4.058925|
|        2827|   -4.248906|   -4.322870|   -5.420256|   -4.058951|
|        2828|   -4.248926|   -4.323249|   -5.420454|   -4.058977|
|        2829|   -4.248945|   -4.323627|   -5.420651|   -4.059003|
|        2830|   -4.248965|   -4.324004|   -5.420848|   -4.059029|
|        2831|   -4.248984|   -4.324379|   -5.421044|   -4.059055|
|        2832|   -4.249004|   -4.324753|   -5.421241|   -4.059081|
|        2833|   -4.249023|   -4.325126|   -5.421437|   -4.059107|
|        2834|   -4.249042|   -4.325498|   -5.421633|   -4.059133|
|        2835|   -4.249061|   -4.325868|   -5.421829|   -4.059159|
|        2836|   -4.249080|   -4.326237|   -5.422024|   -4.059185|
|        2837|   -4.249099|   -4.326605|   -5.422219|   -4.059211|
|        2838|   -4.249118|   -4.326971|   -5.422414|   -4.059237|
|        2839|   -4.249137|   -4.327337|   -5.422609|   -4.059263|
|        2840|   -4.249155|   -4.327701|   -5.422803|   -4.059289|
|        2841|   -4.249174|   -4.328063|   -5.422998|   -4.059315|
|        2842|   -4.249192|   -4.328425|   -5.423192|   -4.059341|
|        2843|   -4.249211|   -4.328785|   -5.423385|   -4.059366|
|        2844|   -4.249229|   -4.329144|   -5.423579|   -4.059392|
|        2845|   -4.249247|   -4.329501|   -5.423772|   -4.059418|
|        2846|   -4.249265|   -4.329858|   -5.423965|   -4.059444|
|        2847|   -4.249283|   -4.330213|   -5.424158|   -4.059470|
|        2848|   -4.249300|   -4.330567|   -5.424350|   -4.059496|
|        2849|   -4.249318|   -4.330919|   -5.424543|   -4.059522|
|        2850|   -4.249336|   -4.331271|   -5.424735|   -4.059548|
|        2851|   -4.249353|   -4.331621|   -5.424927|   -4.059574|
|        2852|   -4.249371|   -4.331970|   -5.425118|   -4.059600|
|        2853|   -4.249388|   -4.332317|   -5.425309|   -4.059626|
|        2854|   -4.249405|   -4.332664|   -5.425501|   -4.059652|
|        2855|   -4.249422|   -4.333009|   -5.425691|   -4.059677|
|        2856|   -4.249439|   -4.333353|   -5.425882|   -4.059703|
|        2857|   -4.249456|   -4.333695|   -5.426072|   -4.059729|
|        2858|   -4.249473|   -4.334037|   -5.426263|   -4.059755|
|        2859|   -4.249490|   -4.334377|   -5.426453|   -4.059781|
|        2860|   -4.249506|   -4.334715|   -5.426642|   -4.059807|
|        2861|   -4.249523|   -4.335053|   -5.426832|   -4.059833|
|        2862|   -4.249539|   -4.335389|   -5.427021|   -4.059859|
|        2863|   -4.249555|   -4.335724|   -5.427210|   -4.059884|
|        2864|   -4.249572|   -4.336058|   -5.427399|   -4.059910|
|        2865|   -4.249588|   -4.336391|   -5.427587|   -4.059936|
|        2866|   -4.249604|   -4.336722|   -5.427775|   -4.059962|
|        2867|   -4.249620|   -4.337052|   -5.427963|   -4.059988|
|        2868|   -4.249636|   -4.337381|   -5.428151|   -4.060014|
|        2869|   -4.249651|   -4.337709|   -5.428339|   -4.060039|
|        2870|   -4.249667|   -4.338035|   -5.428526|   -4.060065|
|        2871|   -4.249683|   -4.338360|   -5.428713|   -4.060091|
|        2872|   -4.249698|   -4.338684|   -5.428900|   -4.060117|
|        2873|   -4.249713|   -4.339007|   -5.429087|   -4.060143|
|        2874|   -4.249729|   -4.339329|   -5.429273|   -4.060169|
|        2875|   -4.249744|   -4.339649|   -5.429459|   -4.060194|
|        2876|   -4.249759|   -4.339968|   -5.429645|   -4.060220|
|        2877|   -4.249774|   -4.340286|   -5.429831|   -4.060246|
|        2878|   -4.249789|   -4.340602|   -5.430016|   -4.060272|
|        2879|   -4.249804|   -4.340917|   -5.430202|   -4.060298|
|        2880|   -4.249818|   -4.341232|   -5.430387|   -4.060323|
|        2881|   -4.249833|   -4.341544|   -5.430572|   -4.060349|
|        2882|   -4.249848|   -4.341856|   -5.430756|   -4.060375|
|        2883|   -4.249862|   -4.342167|   -5.430940|   -4.060401|
|        2884|   -4.249876|   -4.342476|   -5.431124|   -4.060427|
|        2885|   -4.249891|   -4.342784|   -5.431308|   -4.060452|
|        2886|   -4.249905|   -4.343091|   -5.431492|   -4.060478|
|        2887|   -4.249919|   -4.343396|   -5.431675|   -4.060504|
|        2888|   -4.249933|   -4.343701|   -5.431859|   -4.060530|
|        2889|   -4.249947|   -4.344004|   -5.432042|   -4.060555|
|        2890|   -4.249961|   -4.344306|   -5.432224|   -4.060581|
|        2891|   -4.249975|   -4.344606|   -5.432407|   -4.060607|
|        2892|   -4.249988|   -4.344906|   -5.432589|   -4.060633|
|        2893|   -4.250002|   -4.345204|   -5.432771|   -4.060659|
|        2894|   -4.250015|   -4.345501|   -5.432953|   -4.060684|
|        2895|   -4.250029|   -4.345797|   -5.433135|   -4.060710|
|        2896|   -4.250042|   -4.346092|   -5.433316|   -4.060736|
|        2897|   -4.250055|   -4.346385|   -5.433497|   -4.060761|
|        2898|   -4.250068|   -4.346678|   -5.433678|   -4.060787|
|        2899|   -4.250081|   -4.346969|   -5.433859|   -4.060813|
|        2900|   -4.250094|   -4.347259|   -5.434039|   -4.060839|
|        2901|   -4.250107|   -4.347548|   -5.434219|   -4.060864|
|        2902|   -4.250120|   -4.347835|   -5.434399|   -4.060890|
|        2903|   -4.250132|   -4.348122|   -5.434579|   -4.060916|
|        2904|   -4.250145|   -4.348407|   -5.434759|   -4.060942|
|        2905|   -4.250158|   -4.348691|   -5.434938|   -4.060967|
|        2906|   -4.250170|   -4.348974|   -5.435117|   -4.060993|
|        2907|   -4.250182|   -4.349255|   -5.435296|   -4.061019|
|        2908|   -4.250195|   -4.349536|   -5.435475|   -4.061044|
|        2909|   -4.250207|   -4.349815|   -5.435653|   -4.061070|
|        2910|   -4.250219|   -4.350093|   -5.435832|   -4.061096|
|        2911|   -4.250231|   -4.350370|   -5.436010|   -4.061121|
|        2912|   -4.250243|   -4.350646|   -5.436188|   -4.061147|
|        2913|   -4.250255|   -4.350920|   -5.436365|   -4.061173|
|        2914|   -4.250266|   -4.351194|   -5.436542|   -4.061198|
|        2915|   -4.250278|   -4.351466|   -5.436720|   -4.061224|
|        2916|   -4.250290|   -4.351737|   -5.436897|   -4.061250|
|        2917|   -4.250301|   -4.352007|   -5.437073|   -4.061275|
|        2918|   -4.250312|   -4.352276|   -5.437250|   -4.061301|
|        2919|   -4.250324|   -4.352544|   -5.437426|   -4.061327|
|        2920|   -4.250335|   -4.352810|   -5.437602|   -4.061352|
|        2921|   -4.250346|   -4.353075|   -5.437778|   -4.061378|
|        2922|   -4.250357|   -4.353340|   -5.437954|   -4.061404|
|        2923|   -4.250368|   -4.353603|   -5.438129|   -4.061429|
|        2924|   -4.250379|   -4.353864|   -5.438304|   -4.061455|
|        2925|   -4.250390|   -4.354125|   -5.438479|   -4.061481|
|        2926|   -4.250401|   -4.354385|   -5.438654|   -4.061506|
|        2927|   -4.250411|   -4.354643|   -5.438828|   -4.061532|
|        2928|   -4.250422|   -4.354900|   -5.439003|   -4.061557|
|        2929|   -4.250432|   -4.355157|   -5.439177|   -4.061583|
|        2930|   -4.250443|   -4.355412|   -5.439351|   -4.061609|
|        2931|   -4.250453|   -4.355666|   -5.439524|   -4.061634|
|        2932|   -4.250463|   -4.355918|   -5.439698|   -4.061660|
|        2933|   -4.250474|   -4.356170|   -5.439871|   -4.061685|
|        2934|   -4.250484|   -4.356421|   -5.440044|   -4.061711|
|        2935|   -4.250494|   -4.356670|   -5.440217|   -4.061737|
|        2936|   -4.250504|   -4.356918|   -5.440390|   -4.061762|
|        2937|   -4.250514|   -4.357165|   -5.440562|   -4.061788|
|        2938|   -4.250523|   -4.357411|   -5.440734|   -4.061813|
|        2939|   -4.250533|   -4.357656|   -5.440906|   -4.061839|
|        2940|   -4.250543|   -4.357900|   -5.441078|   -4.061864|
|        2941|   -4.250552|   -4.358143|   -5.441249|   -4.061890|
|        2942|   -4.250562|   -4.358384|   -5.441421|   -4.061916|
|        2943|   -4.250571|   -4.358625|   -5.441592|   -4.061941|
|        2944|   -4.250580|   -4.358864|   -5.441763|   -4.061967|
|        2945|   -4.250590|   -4.359103|   -5.441933|   -4.061992|
|        2946|   -4.250599|   -4.359340|   -5.442104|   -4.062018|
|        2947|   -4.250608|   -4.359576|   -5.442274|   -4.062043|
|        2948|   -4.250617|   -4.359811|   -5.442444|   -4.062069|
|        2949|   -4.250626|   -4.360045|   -5.442614|   -4.062094|
|        2950|   -4.250634|   -4.360278|   -5.442784|   -4.062120|
|        2951|   -4.250643|   -4.360509|   -5.442953|   -4.062145|
|        2952|   -4.250652|   -4.360740|   -5.443122|   -4.062171|
|        2953|   -4.250661|   -4.360970|   -5.443291|   -4.062197|
|        2954|   -4.250669|   -4.361198|   -5.443460|   -4.062222|
|        2955|   -4.250678|   -4.361425|   -5.443629|   -4.062248|
|        2956|   -4.250686|   -4.361652|   -5.443797|   -4.062273|
|        2957|   -4.250694|   -4.361877|   -5.443965|   -4.062299|
|        2958|   -4.250702|   -4.362101|   -5.444133|   -4.062324|
|        2959|   -4.250711|   -4.362324|   -5.444301|   -4.062350|
|        2960|   -4.250719|   -4.362546|   -5.444469|   -4.062375|
|        2961|   -4.250727|   -4.362767|   -5.444636|   -4.062401|
|        2962|   -4.250735|   -4.362987|   -5.444803|   -4.062426|
|        2963|   -4.250742|   -4.363206|   -5.444970|   -4.062451|
|        2964|   -4.250750|   -4.363424|   -5.445137|   -4.062477|
|        2965|   -4.250758|   -4.363641|   -5.445304|   -4.062502|
|        2966|   -4.250766|   -4.363857|   -5.445470|   -4.062528|
|        2967|   -4.250773|   -4.364071|   -5.445636|   -4.062553|
|        2968|   -4.250781|   -4.364285|   -5.445802|   -4.062579|
|        2969|   -4.250788|   -4.364497|   -5.445968|   -4.062604|
|        2970|   -4.250795|   -4.364709|   -5.446133|   -4.062630|
|        2971|   -4.250803|   -4.364919|   -5.446299|   -4.062655|
|        2972|   -4.250810|   -4.365129|   -5.446464|   -4.062681|
|        2973|   -4.250817|   -4.365337|   -5.446629|   -4.062706|
|        2974|   -4.250824|   -4.365545|   -5.446793|   -4.062731|
|        2975|   -4.250831|   -4.365751|   -5.446958|   -4.062757|
|        2976|   -4.250838|   -4.365957|   -5.447122|   -4.062782|
|        2977|   -4.250845|   -4.366161|   -5.447286|   -4.062808|
|        2978|   -4.250851|   -4.366364|   -5.447450|   -4.062833|
|        2979|   -4.250858|   -4.366567|   -5.447614|   -4.062859|
|        2980|   -4.250865|   -4.366768|   -5.447778|   -4.062884|
|        2981|   -4.250871|   -4.366968|   -5.447941|   -4.062909|
|        2982|   -4.250878|   -4.367167|   -5.448104|   -4.062935|
|        2983|   -4.250884|   -4.367366|   -5.448267|   -4.062960|
|        2984|   -4.250890|   -4.367563|   -5.448430|   -4.062986|
|        2985|   -4.250897|   -4.367759|   -5.448592|   -4.063011|
|        2986|   -4.250903|   -4.367955|   -5.448755|   -4.063036|
|        2987|   -4.250909|   -4.368149|   -5.448917|   -4.063062|
|        2988|   -4.250915|   -4.368342|   -5.449079|   -4.063087|
|        2989|   -4.250921|   -4.368534|   -5.449237|   -4.063112|
|        2990|   -4.250927|   -4.368726|   -5.449395|   -4.063138|
|        2991|   -4.250933|   -4.368916|   -5.449554|   -4.063163|
|        2992|   -4.250939|   -4.369105|   -5.449713|   -4.063188|
|        2993|   -4.250944|   -4.369294|   -5.449872|   -4.063214|
|        2994|   -4.250950|   -4.369481|   -5.450031|   -4.063239|
|        2995|   -4.250955|   -4.369668|   -5.450190|   -4.063265|
|        2996|   -4.250961|   -4.369853|   -5.450349|   -4.063290|
|        2997|   -4.250966|   -4.370038|   -5.450508|   -4.063315|
|        2998|   -4.250972|   -4.370221|   -5.450666|   -4.063341|
|        2999|   -4.250977|   -4.370404|   -5.450825|   -4.063366|
|        3000|   -4.250982|   -4.370586|   -5.450984|   -4.063391|
+-----------------------------------------------------------------------+
|        File Writing Summary       |              Filename             |
+-----------------------------------------------------------------------+
|SU2 restart                        |restart_verification_mixtureviscosity_smallbox_turb.dat|
|                                   |                     (3.71814 MB/s)|
|Paraview                           |flow_verification_mixtureviscosity_smallbox_turb_00003000.vtu|
