scsub> Executing:  'cd /home/hem1dev/Codes/SU2_Github_Mark_Test/SU2/Venturi'


WARNING: CONV_CRITERIA is deprecated. SU2 will choose the criteria automatically based on the CONV_FIELD.
That is, RESIDUAL for any RMS_* BGS_* value, and CAUCHY for coefficients such as DRAG etc.


-------------------------------------------------------------------------
|    ___ _   _ ___                                                      |
|   / __| | | |_  )   Release 7.1.1 "Blackbird"                         |
|   \__ \ |_| |/ /                                                      |
|   |___/\___//___|   Suite (Computational Fluid Dynamics Code)         |
|                                                                       |
-------------------------------------------------------------------------
| SU2 Project Website: https://su2code.github.io                        |
|                                                                       |
| The SU2 Project is maintained by the SU2 Foundation                   |
| (http://su2foundation.org)                                            |
-------------------------------------------------------------------------
| Copyright 2012-2021, SU2 Contributors                                 |
|                                                                       |
| SU2 is free software; you can redistribute it and/or                  |
| modify it under the terms of the GNU Lesser General Public            |
| License as published by the Free Software Foundation; either          |
| version 2.1 of the License, or (at your option) any later version.    |
|                                                                       |
| SU2 is distributed in the hope that it will be useful,                |
| but WITHOUT ANY WARRANTY; without even the implied warranty of        |
| MERCHANTABILITY or FITNESS FOR A PARTICULAR PURPOSE. See the GNU      |
| Lesser General Public License for more details.                       |
|                                                                       |
| You should have received a copy of the GNU Lesser General Public      |
| License along with SU2. If not, see <http://www.gnu.org/licenses/>.   |
-------------------------------------------------------------------------


WARNING: CONV_CRITERIA is deprecated. SU2 will choose the criteria automatically based on the CONV_FIELD.
That is, RESIDUAL for any RMS_* BGS_* value, and CAUCHY for coefficients such as DRAG etc.


Parsing config file for zone 0


WARNING: CONV_CRITERIA is deprecated. SU2 will choose the criteria automatically based on the CONV_FIELD.
That is, RESIDUAL for any RMS_* BGS_* value, and CAUCHY for coefficients such as DRAG etc.


----------------- Physical Case Definition ( Zone 0 ) -------------------
Incompressible RANS equations.
Turbulence model: Menter's SST
Hybrid RANS/LES: No Hybrid RANS/LES
No restart solution, use the values at infinity (freestream).
Dimensional simulation.
The reference area is 1 m^2.
The semi-span will be computed using the max y(3D) value.
The reference length is 1 m.
Input mesh file name: turbulentpipefine.su2

--------------- Space Numerical Integration ( Zone 0 ) ------------------
Flux difference splitting (FDS) upwind scheme for the flow inviscid terms.
Second order integration in space, with slope limiter.
No slope-limiting method. 
Average of gradients with correction (viscous flow terms).
Average of gradients with correction (viscous turbulence terms).
Gradient for upwind reconstruction: Green-Gauss.
Gradient for viscous and source terms: Green-Gauss.

--------------- Time Numerical Integration  ( Zone 0 ) ------------------
Local time stepping (steady state simulation).
Euler implicit method for the flow equations.
FGMRES is used for solving the linear system.
Using a ILU(0) preconditioning.
Convergence criteria of the linear solver: 1e-08.
Max number of linear iterations: 50.
No CFL adaptation.
Courant-Friedrichs-Lewy number:      100
Euler implicit time integration for the turbulence model.

------------------ Convergence Criteria  ( Zone 0 ) ---------------------
Maximum number of solver subiterations: 50000.
Begin convergence monitoring at iteration 10.
Residual minimum value: 1e-10.
Cauchy series min. value: 1e-06.
Number of Cauchy elements: 100.
Begin windowed time average at iteration 0.

-------------------- Output Information ( Zone 0 ) ----------------------
Writing solution files every 5000 iterations.
Writing the convergence history file every 1 inner iterations.
Writing the screen convergence history every 1 inner iterations.
The tabular file format is CSV (.csv).
Convergence history file name: history_turbulentpipe.
Forces breakdown file name: forces_breakdown.dat.
Surface file name: surface_flow_turbulentpipe.
Volume file name: flow_turbulentpipe.
Restart file name: restart_turbulentpipe.dat.

------------- Config File Boundary Information ( Zone 0 ) ---------------
+-----------------------------------------------------------------------+
|                        Marker Type|                        Marker Name|
+-----------------------------------------------------------------------+
|                     Symmetry plane|                               axis|
+-----------------------------------------------------------------------+
|                     Inlet boundary|                      inlet_methane|
|                                   |                          inlet_air|
+-----------------------------------------------------------------------+
|                    Outlet boundary|                             outlet|
+-----------------------------------------------------------------------+
|                     Heat flux wall|                               wall|
+-----------------------------------------------------------------------+

-------------------- Output Preprocessing ( Zone 0 ) --------------------
Screen output fields: INNER_ITER, RMS_PRESSURE, RMS_VELOCITY-X, RMS_VELOCITY-Y, RMS_PASSIVE_SCALAR
History output group(s): RMS_RES, AERO_COEFF, FLOW_COEFF
Ignoring Convergence Field(s): RMS_DENSITY 
Convergence field(s): RMS_PRESSURE, RMS_VELOCITY-X, RMS_VELOCITY-Y, RMS_TKE
Warning: No (valid) fields chosen for time convergence monitoring. Time convergence monitoring inactive.
  Info: Ignoring the following volume output fields/groups:
  SOURCE, LOOKUP
Volume output fields: DENSITY, SOLUTION, PRIMITIVE, RESIDUAL, COORDINATES

------------------- Geometry Preprocessing ( Zone 0 ) -------------------
Two dimensional problem.
798000 grid points before partitioning.
795602 volume elements before partitioning.
5 surface markers.
1999 boundary elements in index 0 (Marker = wall).
398 boundary elements in index 1 (Marker = outlet).
199 boundary elements in index 2 (Marker = inlet_air).
199 boundary elements in index 3 (Marker = inlet_methane).
1999 boundary elements in index 4 (Marker = axis).
Executing the partitioning functions.
Building the graph adjacency structure.
Calling ParMETIS... graph partitioning complete (25303 edge cuts).
Distributing ParMETIS coloring.
Rebalancing vertices.
Rebalancing volume element connectivity.
Rebalancing markers and surface elements.
849049 vertices including ghost points. 
820991 interior elements including halo cells. 
820991 quadrilaterals.
Establishing MPI communication patterns.
Setting point connectivity.
Renumbering points (Reverse Cuthill McKee Ordering).
Recomputing point connectivity.
Setting element connectivity.
Checking the numerical grid orientation.
There has been a re-orientation of 820991 QUADRILATERAL volume elements.
There has been a re-orientation of 4847 LINE surface elements.
Identifying edges and vertices.
Setting the control volume structure.
Area of the computational grid: 0.103191.
Searching for the closest normal neighbors to the surfaces.
Storing a mapping from global to local point index.
Compute the surface curvature.
Max K: 3572.68. Mean K: 5.95571. Standard deviation K: 145.748.
Checking for periodicity.
Computing mesh quality statistics for the dual control volumes.
+--------------------------------------------------------------+
|           Mesh Quality Metric|        Minimum|        Maximum|
+--------------------------------------------------------------+
|    Orthogonality Angle (deg.)|             90|             90|
|     CV Face Area Aspect Ratio|        1.00452|        3.98199|
|           CV Sub-Volume Ratio|              1|              1|
+--------------------------------------------------------------+
Finding max control volume width.
Communicating number of neighbors.
Wetted area = 0 m^2.
Area projection in the x-plane = 0 m, y-plane = 0 m.
Max. coordinate in the x-direction = -1e+10 m, y-direction = -1e+10 m.
Min. coordinate in the x-direction = 1e+10 m, y-direction = 1e+10 m.
Checking if Euler & Symmetry markers are straight/plane:
Boundary marker axis is a single straight.
Computing wall distances.

-------------------- Solver Preprocessing ( Zone 0 ) --------------------
Incompressible flow: rho_ref, vel_ref, temp_ref, p_ref
are set to 1.0 in order to perform a dimensional calculation.
Force coefficients computed using initial values.
The reference area for force coeffs. is 1 m^2.
The reference length for force coeffs. is 1 m.
The pressure is decomposed into thermodynamic and dynamic components.
The initial value of the dynamic pressure is 0.
Mach number: 0, computed using fluid speed of sound.
For external flows, the initial state is imposed at the far-field.
Angle of attack (deg): 0, computed using the initial velocity.
Side slip angle (deg): 0, computed using the initial velocity.
Reynolds number per meter: 66852.4, computed using initial values.
Reynolds number is a byproduct of inputs only (not used internally).
SI units only. The grid should be dimensional (meters).
Energy equation is active and coupled for variable density.

-- Models:
+------------------------------------------------------------------------------+
|          Viscosity Model|        Conductivity Model|              Fluid Model|
+------------------------------------------------------------------------------+
|               SUTHERLAND|          CONSTANT_PRANDTL|+------------------------------------------------------------------------------+
-- Fluid properties:
+------------------------------------------------------------------------------+
|                  Name|    Dim. value|    Ref. value|      Unit|Non-dim. value|
+------------------------------------------------------------------------------+
|        Ref. Viscosity|     1.716e-05|             1|   N.s/m^2|     1.716e-05|
|      Sutherland Temp.|        273.15|             1|         K|        273.15|
|     Sutherland Const.|         110.4|             1|         K|         110.4|
+------------------------------------------------------------------------------+
|        Prandtl (Lam.)|             -|             -|         -|          0.72|
|       Prandtl (Turb.)|             -|             -|         -|           0.9|
+------------------------------------------------------------------------------+
-- Initial and free-stream conditions:
+------------------------------------------------------------------------------+
|                  Name|    Dim. value|    Ref. value|      Unit|Non-dim. value|
+------------------------------------------------------------------------------+
|      Dynamic Pressure|             0|             1|        Pa|             0|
|        Total Pressure|           0.6|             1|        Pa|           0.6|
|               Density|           1.2|             1|    kg/m^3|           1.2|
|           Temperature|           300|             1|         K|           300|
|            Velocity-X|             1|             1|       m/s|             1|
|            Velocity-Y|             0|             1|       m/s|             0|
|    Velocity Magnitude|             1|             1|       m/s|             1|
+------------------------------------------------------------------------------+
|             Viscosity|     1.795e-05|             1|   N.s/m^2|     1.795e-05|
|          Conductivity|             -|             1|   W/m^2.K|             -|
|     Turb. Kin. Energy|       0.00375|             1|   m^2/s^2|       0.00375|
|     Spec. Dissipation|       25.0696|             1|       1/s|       25.0696|
+------------------------------------------------------------------------------+
|           Mach Number|             -|             -|         -|             0|
|       Reynolds Number|             -|             -|         -|       66852.4|
+------------------------------------------------------------------------------+
Initialize Jacobian structure (Navier-Stokes). MG level: 0.
Initialize Jacobian structure (passive scalar model).
Initialize Jacobian structure (SST model).

------------------- Numerics Preprocessing ( Zone 0 ) -------------------

----------------- Integration Preprocessing ( Zone 0 ) ------------------

------------------- Iteration Preprocessing ( Zone 0 ) ------------------
Euler/Navier-Stokes/RANS fluid iteration.

------------------------------ Begin Solver -----------------------------

Simulation Run using the Single-zone Driver
Initializing passive scalar (initial condition).
initialization = 1 1
+----------------------------------------------------------------+
|  Inner_Iter|      rms[P]|      rms[U]|      rms[V]|      rms[c]|
+----------------------------------------------------------------+
|           0|   -4.749744|   -3.926287|  -20.278981|   -5.191537|
|           1|   -4.794514|   -3.982927|   -4.856724|   -5.024486|
|           2|   -5.009063|   -3.738386|   -4.674062|   -4.972734|
|           3|   -5.174490|   -4.100481|   -4.629925|   -5.120249|
|           4|   -5.337384|   -4.088691|   -4.590778|   -5.196718|
|           5|   -5.338865|   -4.141032|   -4.553825|   -5.231485|
|           6|   -5.429402|   -4.160444|   -4.499112|   -5.248994|
|           7|   -5.447186|   -4.194815|   -4.444911|   -5.261607|
|           8|   -5.453317|   -4.207236|   -4.402442|   -5.271935|
|           9|   -5.454589|   -4.214473|   -4.377551|   -5.280697|
|          10|   -5.461912|   -4.219326|   -4.368341|   -5.288054|
|          11|   -5.474314|   -4.225443|   -4.372203|   -5.294560|
|          12|   -5.490217|   -4.232434|   -4.384454|   -5.300304|
|          13|   -5.507606|   -4.239555|   -4.400758|   -5.305369|
|          14|   -5.524986|   -4.246296|   -4.417936|   -5.309785|
|          15|   -5.541691|   -4.252679|   -4.434542|   -5.313704|
|          16|   -5.557414|   -4.258840|   -4.450642|   -5.317265|
|          17|   -5.571837|   -4.264776|   -4.466291|   -5.320633|
|          18|   -5.584591|   -4.270394|   -4.481441|   -5.323919|
|          19|   -5.595340|   -4.275612|   -4.495523|   -5.327191|
|          20|   -5.604056|   -4.280412|   -4.508317|   -5.330430|
|          21|   -5.611020|   -4.284857|   -4.519512|   -5.333608|
|          22|   -5.616855|   -4.289088|   -4.529133|   -5.336663|
|          23|   -5.622289|   -4.293278|   -4.537584|   -5.339495|
|          24|   -5.627980|   -4.297581|   -4.545446|   -5.341991|
|          25|   -5.634305|   -4.302096|   -4.553097|   -5.344042|
|          26|   -5.641240|   -4.306835|   -4.560807|   -5.345624|
|          27|   -5.648365|   -4.311703|   -4.568315|   -5.346776|
|          28|   -5.654996|   -4.316504|   -4.575107|   -5.347623|
|          29|   -5.660417|   -4.321001|   -4.580596|   -5.348361|
|          30|   -5.664185|   -4.324990|   -4.584415|   -5.349150|
|          31|   -5.666315|   -4.328363|   -4.586534|   -5.350098|
|          32|   -5.667277|   -4.331143|   -4.587482|   -5.351279|
|          33|   -5.667770|   -4.333458|   -4.587966|   -5.352697|
|          34|   -5.668501|   -4.335486|   -4.588703|   -5.354295|
|          35|   -5.669939|   -4.337402|   -4.590190|   -5.355977|
|          36|   -5.672255|   -4.339316|   -4.592573|   -5.357696|
|          37|   -5.675364|   -4.341271|   -4.595755|   -5.359392|
|          38|   -5.678955|   -4.343247|   -4.599480|   -5.361003|
|          39|   -5.682649|   -4.345190|   -4.603378|   -5.362511|
|          40|   -5.686101|   -4.347039|   -4.607122|   -5.363927|
|          41|   -5.689081|   -4.348752|   -4.610516|   -5.365282|
|          42|   -5.691520|   -4.350320|   -4.613482|   -5.366614|
|          43|   -5.693498|   -4.351766|   -4.616130|   -5.367957|
|          44|   -5.695192|   -4.353139|   -4.618614|   -5.369332|
|          45|   -5.696816|   -4.354503|   -4.621105|   -5.370748|
|          46|   -5.698552|   -4.355918|   -4.623745|   -5.372204|
|          47|   -5.700515|   -4.357431|   -4.626594|   -5.373691|
|          48|   -5.702732|   -4.359068|   -4.629620|   -5.375195|
|          49|   -5.705151|   -4.360833|   -4.632766|   -5.376705|
|          50|   -5.707662|   -4.362706|   -4.635930|   -5.378213|
|          51|   -5.710131|   -4.364652|   -4.638987|   -5.379718|
|          52|   -5.712438|   -4.366626|   -4.641835|   -5.381225|
|          53|   -5.714506|   -4.368586|   -4.644408|   -5.382748|
|          54|   -5.716318|   -4.370498|   -4.646698|   -5.384300|
|          55|   -5.717911|   -4.372340|   -4.648742|   -5.385892|
|          56|   -5.719363|   -4.374102|   -4.650636|   -5.387530|
|          57|   -5.720765|   -4.375789|   -4.652468|   -5.389214|
|          58|   -5.722195|   -4.377412|   -4.654314|   -5.390938|
|          59|   -5.723705|   -4.378984|   -4.656229|   -5.392687|
|          60|   -5.725305|   -4.380517|   -4.658174|   -5.394444|
|          61|   -5.726973|   -4.382019|   -4.660126|   -5.396192|
|          62|   -5.728661|   -4.383492|   -4.662064|   -5.397915|
|          63|   -5.730318|   -4.384934|   -4.663970|   -5.399599|
|          64|   -5.731900|   -4.386344|   -4.665804|   -5.401238|
|          65|   -5.733389|   -4.387719|   -4.667553|   -5.402826|
|          66|   -5.734784|   -4.389063|   -4.669214|   -5.404362|
|          67|   -5.736106|   -4.390380|   -4.670820|   -5.405847|
|          68|   -5.737385|   -4.391681|   -4.672396|   -5.407282|
|          69|   -5.738653|   -4.392974|   -4.673968|   -5.408668|
|          70|   -5.739931|   -4.394269|   -4.675551|   -5.410008|
|          71|   -5.741230|   -4.395572|   -4.677144|   -5.411303|
|          72|   -5.742547|   -4.396884|   -4.678738|   -5.412555|
|          73|   -5.743867|   -4.398204|   -4.680313|   -5.413764|
|          74|   -5.745171|   -4.399525|   -4.681848|   -5.414931|
|          75|   -5.746439|   -4.400839|   -4.683326|   -5.416057|
|          76|   -5.747663|   -4.402135|   -4.684736|   -5.417143|
|          77|   -5.748838|   -4.403405|   -4.686079|   -5.418193|
|          78|   -5.749972|   -4.404643|   -4.687361|   -5.419209|
|          79|   -5.751078|   -4.405844|   -4.688602|   -5.420190|
|          80|   -5.752168|   -4.407007|   -4.689815|   -5.421139|
|          81|   -5.753256|   -4.408133|   -4.691016|   -5.422053|
|          82|   -5.754348|   -4.409224|   -4.692212|   -5.422929|
|          83|   -5.755446|   -4.410283|   -4.693404|   -5.423766|
|          84|   -5.756548|   -4.411315|   -4.694588|   -5.424560|
|          85|   -5.757647|   -4.412323|   -4.695755|   -5.425311|
|          86|   -5.758737|   -4.413309|   -4.696901|   -5.426015|
|          87|   -5.759809|   -4.414276|   -4.698022|   -5.426671|
|          88|   -5.760862|   -4.415224|   -4.699118|   -5.427282|
|          89|   -5.761898|   -4.416154|   -4.700194|   -5.427852|
|          90|   -5.762926|   -4.417063|   -4.701261|   -5.428385|
|          91|   -5.763955|   -4.417947|   -4.702338|   -5.428882|
|          92|   -5.764998|   -4.418795|   -4.703445|   -5.429351|
|          93|   -5.766078|   -4.419586|   -4.704623|   -5.429800|
|          94|   -5.767223|   -4.420293|   -4.705922|   -5.430239|
|          95|   -5.768468|   -4.420871|   -4.707413|   -5.430682|
|          96|   -5.769866|   -4.421257|   -4.709199|   -5.431151|
|          97|   -5.771490|   -4.421371|   -4.711428|   -5.431674|
|          98|   -5.773432|   -4.421110|   -4.714283|   -5.432280|
|          99|   -5.775812|   -4.420362|   -4.718015|   -5.432995|
|         100|   -5.778776|   -4.419013|   -4.722936|   -5.433854|
|         101|   -5.782513|   -4.416977|   -4.729428|   -5.434886|
|         102|   -5.787250|   -4.414219|   -4.737941|   -5.436119|
|         103|   -5.793255|   -4.410796|   -4.748997|   -5.437570|
|         104|   -5.800852|   -4.406878|   -4.763198|   -5.439269|
|         105|   -5.810417|   -4.402764|   -4.781154|   -5.441218|
|         106|   -5.822423|   -4.398869|   -4.803629|   -5.443387|
|         107|   -5.837362|   -4.395683|   -4.831359|   -5.445720|
|         108|   -5.855818|   -4.393726|   -4.865230|   -5.448143|
|         109|   -5.878387|   -4.393491|   -4.906171|   -5.450557|
|         110|   -5.905647|   -4.395397|   -4.955280|   -5.452855|
|         111|   -5.937989|   -4.399768|   -5.013787|   -5.454956|
|         112|   -5.975592|   -4.406782|   -5.083065|   -5.456767|
|         113|   -6.018361|   -4.416575|   -5.164261|   -5.458206|
|         114|   -6.065526|   -4.429188|   -5.256950|   -5.459231|
|         115|   -6.114958|   -4.444560|   -5.354509|   -5.459830|
|         116|   -6.164053|   -4.462496|   -5.433526|   -5.460018|
|         117|   -6.201315|   -4.483091|   -5.453890|   -5.459849|
|         118|   -6.228467|   -4.505025|   -5.401802|   -5.459455|
|         119|   -6.234032|   -4.527570|   -5.309393|   -5.458877|
|         120|   -6.211488|   -4.551473|   -5.221746|   -5.458033|
|         121|   -6.183243|   -4.575651|   -5.145429|   -5.457051|
|         122|   -6.154779|   -4.599946|   -5.081691|   -5.456018|
|         123|   -6.127555|   -4.624132|   -5.028705|   -5.455000|
|         124|   -6.103296|   -4.647805|   -4.984986|   -5.454041|
|         125|   -6.082233|   -4.670631|   -4.948806|   -5.453176|
|         126|   -6.064174|   -4.692242|   -4.918927|   -5.452419|
|         127|   -6.049005|   -4.712255|   -4.894283|   -5.451776|
|         128|   -6.036461|   -4.730421|   -4.874035|   -5.451243|
|         129|   -6.026169|   -4.746557|   -4.857459|   -5.450813|
|         130|   -6.017869|   -4.760541|   -4.843996|   -5.450475|
|         131|   -6.011297|   -4.772394|   -4.833159|   -5.450222|
|         132|   -6.006169|   -4.782235|   -4.824528|   -5.450042|
|         133|   -6.002264|   -4.790224|   -4.817746|   -5.449929|
|         134|   -5.999398|   -4.796579|   -4.812522|   -5.449876|
|         135|   -5.997388|   -4.801543|   -4.808598|   -5.449872|
|         136|   -5.996065|   -4.805317|   -4.805741|   -5.449918|
|         137|   -5.995325|   -4.808111|   -4.803737|   -5.450010|
|         138|   -5.995097|   -4.810132|   -4.802497|   -5.450128|
|         139|   -5.995281|   -4.811533|   -4.801883|   -5.450264|
|         140|   -5.995803|   -4.812448|   -4.801799|   -5.450415|
|         141|   -5.996602|   -4.812998|   -4.802156|   -5.450573|
|         142|   -5.997619|   -4.813279|   -4.802875|   -5.450735|
|         143|   -5.998810|   -4.813370|   -4.803884|   -5.450897|
|         144|   -6.000132|   -4.813334|   -4.805123|   -5.451058|
|         145|   -6.001552|   -4.813220|   -4.806539|   -5.451217|
|         146|   -6.003038|   -4.813066|   -4.808087|   -5.451373|
|         147|   -6.004568|   -4.812894|   -4.809733|   -5.451532|
|         148|   -6.006124|   -4.812723|   -4.811448|   -5.451697|
|         149|   -6.007690|   -4.812571|   -4.813204|   -5.451870|
|         150|   -6.009253|   -4.812448|   -4.814983|   -5.452055|
|         151|   -6.010804|   -4.812355|   -4.816770|   -5.452251|
|         152|   -6.012336|   -4.812298|   -4.818551|   -5.452460|
|         153|   -6.013844|   -4.812279|   -4.820312|   -5.452683|
|         154|   -6.015328|   -4.812302|   -4.822044|   -5.452919|
|         155|   -6.016780|   -4.812378|   -4.823733|   -5.453169|
|         156|   -6.018192|   -4.812518|   -4.825362|   -5.453431|
|         157|   -6.019559|   -4.812734|   -4.826919|   -5.453705|
|         158|   -6.020871|   -4.813040|   -4.828384|   -5.453990|
|         159|   -6.022116|   -4.813447|   -4.829740|   -5.454285|
|         160|   -6.023289|   -4.813973|   -4.830974|   -5.454588|
|         161|   -6.024384|   -4.814614|   -4.832072|   -5.454899|
|         162|   -6.025399|   -4.815362|   -4.833028|   -5.455217|
|         163|   -6.026338|   -4.816204|   -4.833844|   -5.455540|
|         164|   -6.027212|   -4.817123|   -4.834527|   -5.455867|
|         165|   -6.028037|   -4.818099|   -4.835089|   -5.456198|
|         166|   -6.028834|   -4.819107|   -4.835552|   -5.456532|
|         167|   -6.029630|   -4.820121|   -4.835939|   -5.456868|
|         168|   -6.030450|   -4.821119|   -4.836273|   -5.457201|
|         169|   -6.031320|   -4.822080|   -4.836579|   -5.457529|
|         170|   -6.032263|   -4.822993|   -4.836882|   -5.457845|
|         171|   -6.033303|   -4.823857|   -4.836982|   -5.458140|
|         172|   -6.034455|   -4.824671|   -4.837039|   -5.458401|
|         173|   -6.035715|   -4.825445|   -4.837150|   -5.458614|
|         174|   -6.037102|   -4.826217|   -4.837325|   -5.458761|
|         175|   -6.038620|   -4.827033|   -4.837577|   -5.458822|
|         176|   -6.040267|   -4.827949|   -4.837925|   -5.458773|
|         177|   -6.042035|   -4.829031|   -4.838382|   -5.458593|
|         178|   -6.043908|   -4.830354|   -4.838955|   -5.458257|
|         179|   -6.045858|   -4.831991|   -4.839645|   -5.457745|
|         180|   -6.047853|   -4.834012|   -4.840445|   -5.457037|
|         181|   -6.049855|   -4.836475|   -4.841345|   -5.456118|
|         182|   -6.051826|   -4.839425|   -4.842325|   -5.454975|
|         183|   -6.053733|   -4.842890|   -4.843367|   -5.453599|
|         184|   -6.055546|   -4.846883|   -4.844453|   -5.451986|
|         185|   -6.057246|   -4.851401|   -4.845567|   -5.450136|
|         186|   -6.058811|   -4.856428|   -4.846698|   -5.448055|
|         187|   -6.060224|   -4.861923|   -4.847835|   -5.445754|
|         188|   -6.061466|   -4.867821|   -4.848960|   -5.443238|
|         189|   -6.062530|   -4.874026|   -4.850054|   -5.440533|
|         190|   -6.063407|   -4.880401|   -4.851104|   -5.437663|
|         191|   -6.064079|   -4.886765|   -4.852093|   -5.434659|
|         192|   -6.064589|   -4.892915|   -4.852995|   -5.431559|
|         193|   -6.064951|   -4.898594|   -4.853864|   -5.428412|
|         194|   -6.065126|   -4.903478|   -4.854630|   -5.425255|
|         195|   -6.065117|   -4.907235|   -4.854996|   -5.422124|
|         196|   -6.064935|   -4.909529|   -4.855294|   -5.419046|
|         197|   -6.064560|   -4.910019|   -4.855475|   -5.416053|
|         198|   -6.064024|   -4.908443|   -4.855602|   -5.413170|
|         199|   -6.063318|   -4.904591|   -4.855665|   -5.410425|
|         200|   -6.062459|   -4.898377|   -4.855697|   -5.407842|
|         201|   -6.061450|   -4.889824|   -4.855696|   -5.405440|
|         202|   -6.060308|   -4.879082|   -4.855672|   -5.403234|
|         203|   -6.059054|   -4.866408|   -4.855627|   -5.401233|
|         204|   -6.057726|   -4.852147|   -4.855570|   -5.399441|
|         205|   -6.056366|   -4.836685|   -4.855502|   -5.397852|
|         206|   -6.055026|   -4.820431|   -4.855434|   -5.396454|
|         207|   -6.053762|   -4.803780|   -4.855374|   -5.395228|
|         208|   -6.052626|   -4.787094|   -4.855332|   -5.394153|
|         209|   -6.051661|   -4.770689|   -4.855315|   -5.393204|
|         210|   -6.050900|   -4.754823|   -4.855331|   -5.392354|
|         211|   -6.050358|   -4.739696|   -4.855386|   -5.391578|
|         212|   -6.050037|   -4.725451|   -4.855482|   -5.390849|
|         213|   -6.049927|   -4.712179|   -4.855620|   -5.390147|
|         214|   -6.050010|   -4.699926|   -4.855794|   -5.389449|
|         215|   -6.050265|   -4.688704|   -4.856008|   -5.388739|
|         216|   -6.050667|   -4.678495|   -4.856256|   -5.388002|
|         217|   -6.051187|   -4.669262|   -4.856539|   -5.387229|
|         218|   -6.051798|   -4.660957|   -4.856853|   -5.386414|
|         219|   -6.052468|   -4.653519|   -4.857198|   -5.385554|
|         220|   -6.053165|   -4.646882|   -4.857569|   -5.384650|
|         221|   -6.053878|   -4.640981|   -4.857967|   -5.383704|
|         222|   -6.054593|   -4.635751|   -4.858392|   -5.382717|
|         223|   -6.055302|   -4.631126|   -4.858842|   -5.381685|
|         224|   -6.055990|   -4.627045|   -4.859277|   -5.380618|
|         225|   -6.056674|   -4.623453|   -4.859720|   -5.379523|
|         226|   -6.057344|   -4.620301|   -4.860140|   -5.378408|
|         227|   -6.058007|   -4.617548|   -4.860552|   -5.377280|
|         228|   -6.058648|   -4.615156|   -4.860924|   -5.376141|
|         229|   -6.059263|   -4.613092|   -4.861241|   -5.374998|
|         230|   -6.059843|   -4.611325|   -4.861483|   -5.373859|
|         231|   -6.060387|   -4.609828|   -4.861662|   -5.372734|
|         232|   -6.060897|   -4.608575|   -4.861790|   -5.371630|
|         233|   -6.061374|   -4.607541|   -4.861895|   -5.370554|
|         234|   -6.061780|   -4.606706|   -4.861955|   -5.369516|
|         235|   -6.062107|   -4.606049|   -4.862000|   -5.368524|
|         236|   -6.062302|   -4.605547|   -4.861989|   -5.367584|
|         237|   -6.062321|   -4.605178|   -4.861916|   -5.366701|
|         238|   -6.062113|   -4.604919|   -4.861750|   -5.365880|
|         239|   -6.061621|   -4.604746|   -4.861463|   -5.365127|
|         240|   -6.060776|   -4.604634|   -4.861002|   -5.364442|
|         241|   -6.059529|   -4.604557|   -4.860347|   -5.363830|
|         242|   -6.057810|   -4.604487|   -4.859429|   -5.363290|
|         243|   -6.055572|   -4.604399|   -4.858213|   -5.362821|
|         244|   -6.052774|   -4.604265|   -4.856653|   -5.362424|
|         245|   -6.049386|   -4.604058|   -4.854711|   -5.362095|
|         246|   -6.045399|   -4.603755|   -4.852366|   -5.361832|
|         247|   -6.040815|   -4.603332|   -4.849599|   -5.361631|
|         248|   -6.035661|   -4.602768|   -4.846422|   -5.361488|
|         249|   -6.029977|   -4.602042|   -4.842838|   -5.361398|
|         250|   -6.023822|   -4.601137|   -4.838888|   -5.361355|
|         251|   -6.017263|   -4.600037|   -4.834600|   -5.361354|
|         252|   -6.010387|   -4.598729|   -4.830031|   -5.361388|
|         253|   -6.003272|   -4.597202|   -4.825228|   -5.361453|
|         254|   -5.995990|   -4.595447|   -4.820149|   -5.361552|
|         255|   -5.988740|   -4.593464|   -4.815074|   -5.361681|
|         256|   -5.981545|   -4.591248|   -4.809939|   -5.361840|
|         257|   -5.974548|   -4.588802|   -4.804901|   -5.362023|
|         258|   -5.967830|   -4.586133|   -4.800050|   -5.362234|
|         259|   -5.961449|   -4.583250|   -4.795441|   -5.362479|
|         260|   -5.955505|   -4.580165|   -4.791189|   -5.362756|
|         261|   -5.950064|   -4.576897|   -4.787334|   -5.363066|
|         262|   -5.945199|   -4.573466|   -4.783956|   -5.363409|
|         263|   -5.940965|   -4.569902|   -4.781102|   -5.363784|
|         264|   -5.937416|   -4.566234|   -4.778828|   -5.364191|
|         265|   -5.934594|   -4.562498|   -4.777173|   -5.364630|
|         266|   -5.932535|   -4.558730|   -4.776174|   -5.365099|
|         267|   -5.931269|   -4.554971|   -4.775857|   -5.365598|
|         268|   -5.930818|   -4.551263|   -4.776244|   -5.366128|
|         269|   -5.931201|   -4.547649|   -4.777347|   -5.366686|
|         270|   -5.932429|   -4.544170|   -4.779170|   -5.367273|
|         271|   -5.934506|   -4.540868|   -4.781711|   -5.367886|
|         272|   -5.937433|   -4.537780|   -4.784960|   -5.368525|
|         273|   -5.941202|   -4.534941|   -4.788895|   -5.369188|
|         274|   -5.945801|   -4.532382|   -4.793491|   -5.369872|
|         275|   -5.951208|   -4.530128|   -4.798710|   -5.370577|
|         276|   -5.957398|   -4.528200|   -4.804506|   -5.371301|
|         277|   -5.964332|   -4.526614|   -4.810825|   -5.372043|
|         278|   -5.971966|   -4.525376|   -4.817609|   -5.372801|
|         279|   -5.980250|   -4.524490|   -4.824787|   -5.373577|
|         280|   -5.989116|   -4.523953|   -4.832285|   -5.374368|
|         281|   -5.998486|   -4.523753|   -4.840019|   -5.375175|
|         282|   -6.008277|   -4.523876|   -4.847899|   -5.375997|
|         283|   -6.018388|   -4.524301|   -4.855833|   -5.376834|
|         284|   -6.028704|   -4.525002|   -4.863725|   -5.377687|
|         285|   -6.039116|   -4.525952|   -4.871480|   -5.378554|
|         286|   -6.049493|   -4.527119|   -4.879007|   -5.379437|
|         287|   -6.059699|   -4.528468|   -4.886223|   -5.380334|
|         288|   -6.069616|   -4.529965|   -4.893050|   -5.381245|
|         289|   -6.079118|   -4.531577|   -4.899430|   -5.382167|
|         290|   -6.088072|   -4.533270|   -4.905311|   -5.383101|
|         291|   -6.096389|   -4.535011|   -4.910660|   -5.384042|
|         292|   -6.103990|   -4.536771|   -4.915467|   -5.384985|
|         293|   -6.110777|   -4.538525|   -4.919723|   -5.385926|
|         294|   -6.116707|   -4.540245|   -4.923452|   -5.386851|
|         295|   -6.121828|   -4.541909|   -4.926685|   -5.387751|
|         296|   -6.126145|   -4.543502|   -4.929472|   -5.388632|
|         297|   -6.129698|   -4.545008|   -4.931845|   -5.389498|
|         298|   -6.132588|   -4.546419|   -4.933828|   -5.390348|
|         299|   -6.134845|   -4.547734|   -4.935477|   -5.391186|
|         300|   -6.136552|   -4.548942|   -4.936854|   -5.392013|
|         301|   -6.137862|   -4.550040|   -4.938026|   -5.392828|
|         302|   -6.138796|   -4.551033|   -4.939044|   -5.393630|
|         303|   -6.139404|   -4.551913|   -4.939949|   -5.394421|
|         304|   -6.139837|   -4.552680|   -4.940780|   -5.395197|
|         305|   -6.140094|   -4.553339|   -4.941567|   -5.395958|
|         306|   -6.140181|   -4.553887|   -4.942320|   -5.396705|
|         307|   -6.140233|   -4.554321|   -4.943066|   -5.397437|
|         308|   -6.140234|   -4.554650|   -4.943829|   -5.398149|
|         309|   -6.140148|   -4.554872|   -4.944618|   -5.398847|
|         310|   -6.140086|   -4.554984|   -4.945439|   -5.399528|
|         311|   -6.140038|   -4.554997|   -4.946294|   -5.400188|
|         312|   -6.139930|   -4.554914|   -4.947167|   -5.400831|
|         313|   -6.139838|   -4.554726|   -4.948018|   -5.401455|
|         314|   -6.139776|   -4.554446|   -4.948858|   -5.402055|
|         315|   -6.139650|   -4.554080|   -4.949680|   -5.402635|
|         316|   -6.139500|   -4.553621|   -4.950487|   -5.403196|
|         317|   -6.139388|   -4.553077|   -4.951256|   -5.403732|
|         318|   -6.139213|   -4.552468|   -4.951964|   -5.404248|
|         319|   -6.138964|   -4.551778|   -4.952619|   -5.404746|
|         320|   -6.138753|   -4.551017|   -4.953264|   -5.405221|
|         321|   -6.138482|   -4.550212|   -4.953760|   -5.405676|
|         322|   -6.138084|   -4.549340|   -4.954140|   -5.406117|
|         323|   -6.137728|   -4.548408|   -4.954518|   -5.406539|
|         324|   -6.137321|   -4.547443|   -4.954751|   -5.406943|
|         325|   -6.136769|   -4.546425|   -4.954824|   -5.407336|
|         326|   -6.136262|   -4.545360|   -4.954864|   -5.407716|
|         327|   -6.135696|   -4.544274|   -4.954759|   -5.408081|
|         328|   -6.134993|   -4.543146|   -4.954488|   -5.408440|
|         329|   -6.134334|   -4.541986|   -4.954293|   -5.408791|
|         330|   -6.133594|   -4.540813|   -4.954017|   -5.409132|
|         331|   -6.132761|   -4.539614|   -4.953604|   -5.409471|
|         332|   -6.131940|   -4.538400|   -4.953304|   -5.409806|
|         333|   -6.130959|   -4.537176|   -4.953035|   -5.410139|
|         334|   -6.129962|   -4.535939|   -4.952663|   -5.410473|
|         335|   -6.128890|   -4.534707|   -4.952385|   -5.410807|
|         336|   -6.127525|   -4.533461|   -4.952246|   -5.411148|
|         337|   -6.126247|   -4.532217|   -4.952007|   -5.411494|
|         338|   -6.124753|   -4.530997|   -4.951876|   -5.411840|
|         339|   -6.122796|   -4.529760|   -4.951924|   -5.412203|
|         340|   -6.121054|   -4.528538|   -4.951900|   -5.412574|
|         341|   -6.118914|   -4.527354|   -4.952069|   -5.412946|
|         342|   -6.116121|   -4.526159|   -4.952370|   -5.413347|
|         343|   -6.113669|   -4.524989|   -4.952673|   -5.413758|
|         344|   -6.110626|   -4.523866|   -4.953238|   -5.414169|
|         345|   -6.106752|   -4.522750|   -4.953857|   -5.414619|
|         346|   -6.103280|   -4.521662|   -4.954586|   -5.415082|
|         347|   -6.099111|   -4.520621|   -4.955515|   -5.415544|
|         348|   -6.093999|   -4.519624|   -4.956660|   -5.416054|
|         349|   -6.089117|   -4.518653|   -4.957923|   -5.416580|
|         350|   -6.083704|   -4.517711|   -4.959306|   -5.417107|
|         351|   -6.077242|   -4.516884|   -4.961123|   -5.417682|
|         352|   -6.070574|   -4.516062|   -4.963052|   -5.418281|
|         353|   -6.063885|   -4.515236|   -4.965044|   -5.418888|
|         354|   -6.056039|   -4.514638|   -4.967691|   -5.419531|
|         355|   -6.047270|   -4.514001|   -4.970346|   -5.420216|
|         356|   -6.039459|   -4.513307|   -4.973288|   -5.420914|
|         357|   -6.030164|   -4.513005|   -4.976932|   -5.421625|
|         358|   -6.019168|   -4.512587|   -4.980538|   -5.422412|
|         359|   -6.010346|   -4.512059|   -4.984733|   -5.423212|
|         360|   -5.999629|   -4.512117|   -4.989478|   -5.423995|
|         361|   -5.986566|   -4.511961|   -4.994422|   -5.424900|
|         362|   -5.976743|   -4.511658|   -5.000185|   -5.425814|
|         363|   -5.964724|   -4.512119|   -5.006324|   -5.426672|
|         364|   -5.949862|   -4.512305|   -5.012933|   -5.427716|
|         365|   -5.939075|   -4.512317|   -5.020426|   -5.428767|
|         366|   -5.926154|   -4.513189|   -5.028575|   -5.429702|
|         367|   -5.909674|   -4.513869|   -5.037134|   -5.430912|
|         368|   -5.898029|   -4.514273|   -5.046812|   -5.432120|
|         369|   -5.884292|   -4.515590|   -5.057383|   -5.433143|
|         370|   -5.866721|   -4.516928|   -5.068250|   -5.434545|
|         371|   -5.854075|   -4.517851|   -5.080534|   -5.435930|
|         372|   -5.839730|   -4.519637|   -5.093711|   -5.437087|
|         373|   -5.821912|   -4.521813|   -5.107448|   -5.438675|
|         374|   -5.807819|   -4.523438|   -5.122679|   -5.440253|
|         375|   -5.793227|   -4.525715|   -5.138528|   -5.441633|
|         376|   -5.776092|   -4.528889|   -5.155633|   -5.443353|
|         377|   -5.760046|   -4.531498|   -5.173779|   -5.445174|
|         378|   -5.746040|   -4.534176|   -5.192614|   -5.446832|
|         379|   -5.729595|   -4.538656|   -5.212885|   -5.448613|
|         380|   -5.711984|   -4.542400|   -5.233572|   -5.450771|
|         381|   -5.699275|   -4.545525|   -5.255003|   -5.452786|
|         382|   -5.683875|   -4.551530|   -5.277375|   -5.454621|
|         383|   -5.665619|   -4.556423|   -5.299809|   -5.457063|
|         384|   -5.653403|   -4.560486|   -5.322014|   -5.459618|
|         385|   -5.640566|   -4.568080|   -5.343429|   -5.462057|
|         386|   -5.625745|   -4.574590|   -5.363429|   -5.465732|
|         387|   -5.619329|   -4.579838|   -5.382199|   -5.469605|
|         388|   -5.612195|   -4.589728|   -5.398585|   -5.473370|
|         389|   -5.604120|   -4.598230|   -5.411776|   -5.478731|
|         390|   -5.603940|   -4.605917|   -5.422070|   -5.484430|
|         391|   -5.604620|   -4.617619|   -5.428289|   -5.490083|
|         392|   -5.604322|   -4.628925|   -5.429752|   -5.497390|
|         393|   -5.611149|   -4.639121|   -5.427821|   -5.505097|
|         394|   -5.619860|   -4.652452|   -5.422533|   -5.512824|
|         395|   -5.627349|   -4.666651|   -5.414042|   -5.522033|
|         396|   -5.640665|   -4.679032|   -5.403979|   -5.531534|
|         397|   -5.656738|   -4.693641|   -5.393224|   -5.541131|
|         398|   -5.671598|   -4.709997|   -5.382147|   -5.551623|
|         399|   -5.689565|   -4.724248|   -5.371755|   -5.562164|
|         400|   -5.712908|   -4.741033|   -5.356798|   -5.574112|
|         401|   -5.751397|   -4.754895|   -5.341944|   -5.586251|
|         402|   -5.792552|   -4.770244|   -5.327017|   -5.597933|
|         403|   -5.848492|   -4.784712|   -5.313214|   -5.608866|
|         404|   -5.903510|   -4.803197|   -5.299577|   -5.619526|
|         405|   -5.956659|   -4.819565|   -5.285872|   -5.630395|
|         406|   -6.010439|   -4.836369|   -5.272200|   -5.642135|
|         407|   -6.055664|   -4.854044|   -5.258734|   -5.655133|
|         408|   -6.083608|   -4.870722|   -5.245759|   -5.669754|
|         409|   -6.103787|   -4.886007|   -5.233756|   -5.685781|
|         410|   -6.115623|   -4.901397|   -5.222805|   -5.702579|
|         411|   -6.117601|   -4.916087|   -5.212886|   -5.719523|
|         412|   -6.115660|   -4.929864|   -5.203897|   -5.735898|
|         413|   -6.112917|   -4.943746|   -5.195706|   -5.750981|
|         414|   -6.108274|   -4.957838|   -5.188207|   -5.764430|
|         415|   -6.102628|   -4.971705|   -5.181308|   -5.776153|
|         416|   -6.097107|   -4.985427|   -5.174971|   -5.786170|
|         417|   -6.091538|   -4.998818|   -5.169202|   -5.794616|
|         418|   -6.085840|   -5.011427|   -5.164018|   -5.801688|
|         419|   -6.080283|   -5.023075|   -5.159446|   -5.807572|
|         420|   -6.074928|   -5.033743|   -5.155499|   -5.812440|
|         421|   -6.069710|   -5.043390|   -5.152170|   -5.816443|
|         422|   -6.064610|   -5.052043|   -5.149433|   -5.819715|
|         423|   -6.059621|   -5.059789|   -5.147246|   -5.822369|
|         424|   -6.054683|   -5.066704|   -5.145559|   -5.824501|
|         425|   -6.049749|   -5.072851|   -5.144313|   -5.826194|
|         426|   -6.044775|   -5.078298|   -5.143443|   -5.827520|
|         427|   -6.039719|   -5.083110|   -5.142881|   -5.828537|
|         428|   -6.034544|   -5.087346|   -5.142554|   -5.829296|
|         429|   -6.029218|   -5.091064|   -5.142393|   -5.829837|
|         430|   -6.023719|   -5.094320|   -5.142330|   -5.830194|
|         431|   -6.018031|   -5.097171|   -5.142305|   -5.830399|
|         432|   -6.012143|   -5.099664|   -5.142261|   -5.830478|
|         433|   -6.006054|   -5.101849|   -5.142152|   -5.830457|
|         434|   -5.999769|   -5.103765|   -5.141942|   -5.830359|
|         435|   -5.993298|   -5.105449|   -5.141604|   -5.830212|
|         436|   -5.986656|   -5.106930|   -5.141120|   -5.830042|
|         437|   -5.979861|   -5.108236|   -5.140480|   -5.829880|
|         438|   -5.972934|   -5.109385|   -5.139681|   -5.829762|
|         439|   -5.965900|   -5.110393|   -5.138722|   -5.829729|
|         440|   -5.958781|   -5.111269|   -5.137607|   -5.829830|
|         441|   -5.951594|   -5.112034|   -5.136337|   -5.830135|
|         442|   -5.944359|   -5.112703|   -5.134917|   -5.830739|
|         443|   -5.937095|   -5.113274|   -5.133346|   -5.831746|
|         444|   -5.929822|   -5.113731|   -5.131624|   -5.833251|
|         445|   -5.922560|   -5.114059|   -5.129752|   -5.835341|
|         446|   -5.915333|   -5.114246|   -5.127730|   -5.838089|
|         447|   -5.908162|   -5.114290|   -5.125562|   -5.841547|
|         448|   -5.901070|   -5.114184|   -5.123253|   -5.845736|
|         449|   -5.894081|   -5.113926|   -5.120808|   -5.850639|
|         450|   -5.887219|   -5.113517|   -5.118237|   -5.856191|
|         451|   -5.880509|   -5.112963|   -5.115550|   -5.862282|
|         452|   -5.873976|   -5.112277|   -5.112758|   -5.868771|
|         453|   -5.867646|   -5.111478|   -5.109872|   -5.875487|
|         454|   -5.861543|   -5.110590|   -5.106907|   -5.882266|
|         455|   -5.855691|   -5.109637|   -5.103877|   -5.888965|
|         456|   -5.850114|   -5.108641|   -5.100800|   -5.895489|
|         457|   -5.844839|   -5.107613|   -5.097688|   -5.901798|
|         458|   -5.839893|   -5.106555|   -5.094560|   -5.907906|
|         459|   -5.835307|   -5.105454|   -5.091425|   -5.913866|
|         460|   -5.831118|   -5.104296|   -5.088299|   -5.919760|
|         461|   -5.827367|   -5.103067|   -5.085189|   -5.925674|
|         462|   -5.824099|   -5.101759|   -5.082111|   -5.931691|
|         463|   -5.821365|   -5.100368|   -5.079072|   -5.937877|
|         464|   -5.819222|   -5.098894|   -5.076089|   -5.944274|
|         465|   -5.817731|   -5.097345|   -5.073181|   -5.950908|
|         466|   -5.816955|   -5.095731|   -5.070364|   -5.957795|
|         467|   -5.816967|   -5.094071|   -5.067664|   -5.964933|
|         468|   -5.817840|   -5.092380|   -5.065102|   -5.972303|
|         469|   -5.819652|   -5.090676|   -5.062712|   -5.979883|
|         470|   -5.822480|   -5.088972|   -5.060528|   -5.987629|
|         471|   -5.826400|   -5.087281|   -5.058578|   -5.995499|
|         472|   -5.831484|   -5.085605|   -5.056899|   -6.003435|
|         473|   -5.837792|   -5.083950|   -5.055525|   -6.011383|
|         474|   -5.845374|   -5.082306|   -5.054494|   -6.019272|
|         475|   -5.854255|   -5.080675|   -5.053827|   -6.027038|
|         476|   -5.864436|   -5.079055|   -5.053561|   -6.034614|
|         477|   -5.875883|   -5.077457|   -5.053731|   -6.041934|
|         478|   -5.888515|   -5.075904|   -5.054374|   -6.048934|
|         479|   -5.902196|   -5.074430|   -5.055496|   -6.055562|
|         480|   -5.916733|   -5.073084|   -5.057118|   -6.061772|
|         481|   -5.931868|   -5.071928|   -5.059233|   -6.067526|
|         482|   -5.947269|   -5.070994|   -5.061786|   -6.072784|
|         483|   -5.962562|   -5.070329|   -5.064738|   -6.077522|
|         484|   -5.977321|   -5.069980|   -5.067987|   -6.081729|
|         485|   -5.991132|   -5.069981|   -5.071435|   -6.085400|
|         486|   -6.003611|   -5.070350|   -5.074966|   -6.088543|
|         487|   -6.014446|   -5.071091|   -5.078447|   -6.091181|
|         488|   -6.023439|   -5.072180|   -5.081775|   -6.093337|
|         489|   -6.030516|   -5.073592|   -5.084819|   -6.095030|
|         490|   -6.035719|   -5.075282|   -5.087506|   -6.096274|
|         491|   -6.039196|   -5.077214|   -5.089745|   -6.097090|
|         492|   -6.041185|   -5.079329|   -5.091503|   -6.097510|
|         493|   -6.041955|   -5.081564|   -5.092745|   -6.097554|
|         494|   -6.041795|   -5.083858|   -5.093475|   -6.097243|
|         495|   -6.040981|   -5.086151|   -5.093712|   -6.096593|
|         496|   -6.039753|   -5.088382|   -5.093488|   -6.095629|
|         497|   -6.038315|   -5.090498|   -5.092857|   -6.094369|
|         498|   -6.036820|   -5.092455|   -5.091873|   -6.092823|
|         499|   -6.035375|   -5.094218|   -5.090608|   -6.091006|
|         500|   -6.034049|   -5.095765|   -5.089132|   -6.088943|
|         501|   -6.032874|   -5.097084|   -5.087553|   -6.086656|
|         502|   -6.031813|   -5.098179|   -5.085886|   -6.084177|
|         503|   -6.030828|   -5.099060|   -5.084180|   -6.081525|
|         504|   -6.029858|   -5.099747|   -5.082463|   -6.078713|
|         505|   -6.028839|   -5.100266|   -5.080769|   -6.075754|
|         506|   -6.027709|   -5.100644|   -5.079124|   -6.072689|
|         507|   -6.026406|   -5.100905|   -5.077543|   -6.069586|
|         508|   -6.024876|   -5.101058|   -5.076027|   -6.066476|
|         509|   -6.023078|   -5.101095|   -5.074562|   -6.063339|
|         510|   -6.020992|   -5.100988|   -5.073128|   -6.060082|
|         511|   -6.018614|   -5.100696|   -5.071691|   -6.056621|
|         512|   -6.015946|   -5.100173|   -5.070215|   -6.052948|
|         513|   -6.012999|   -5.099373|   -5.068658|   -6.049108|
|         514|   -6.009792|   -5.098245|   -5.066983|   -6.045160|
|         515|   -6.006347|   -5.096732|   -5.065159|   -6.041141|
|         516|   -6.002685|   -5.094771|   -5.063159|   -6.037075|
|         517|   -5.998820|   -5.092293|   -5.060966|   -6.032973|
|         518|   -5.994756|   -5.089224|   -5.058567|   -6.028848|
|         519|   -5.990490|   -5.085488|   -5.055958|   -6.024708|
|         520|   -5.986009|   -5.081008|   -5.053139|   -6.020562|
|         521|   -5.981293|   -5.075709|   -5.050115|   -6.016419|
|         522|   -5.976320|   -5.069521|   -5.046897|   -6.012265|
|         523|   -5.971066|   -5.062380|   -5.043496|   -6.008086|
|         524|   -5.965509|   -5.054234|   -5.039930|   -6.003866|
|         525|   -5.959635|   -5.045053|   -5.036219|   -5.999594|
|         526|   -5.953441|   -5.034824|   -5.032387|   -5.995265|
|         527|   -5.946933|   -5.023562|   -5.028458|   -5.990886|
|         528|   -5.940136|   -5.011318|   -5.024465|   -5.986468|
|         529|   -5.933088|   -4.998172|   -5.020441|   -5.982040|
|         530|   -5.925844|   -4.984243|   -5.016426|   -5.977624|
|         531|   -5.918475|   -4.969683|   -5.012464|   -5.973249|
|         532|   -5.911067|   -4.954675|   -5.008603|   -5.968941|
|         533|   -5.903720|   -4.939427|   -5.004897|   -5.964731|
|         534|   -5.896542|   -4.924161|   -5.001401|   -5.960646|
|         535|   -5.889650|   -4.909112|   -4.998175|   -5.956713|
|         536|   -5.883166|   -4.894511|   -4.995281|   -5.952962|
|         537|   -5.877216|   -4.880580|   -4.992784|   -5.949418|
|         538|   -5.871925|   -4.867522|   -4.990749|   -5.946112|
|         539|   -5.867410|   -4.855515|   -4.989238|   -5.943059|
|         540|   -5.863777|   -4.844707|   -4.988302|   -5.940271|
|         541|   -5.861118|   -4.835213|   -4.987990|   -5.937771|
|         542|   -5.859508|   -4.827115|   -4.988335|   -5.935543|
|         543|   -5.859003|   -4.820456|   -4.989364|   -5.933596|
|         544|   -5.859639|   -4.815246|   -4.991090|   -5.931908|
|         545|   -5.861429|   -4.811463|   -4.993513|   -5.930467|
|         546|   -5.864366|   -4.809055|   -4.996619|   -5.929250|
|         547|   -5.868424|   -4.807945|   -5.000384|   -5.928216|
|         548|   -5.873556|   -4.808034|   -5.004768|   -5.927349|
|         549|   -5.879698|   -4.809208|   -5.009721|   -5.926593|
|         550|   -5.886770|   -4.811339|   -5.015182|   -5.925927|
|         551|   -5.894680|   -4.814294|   -5.021075|   -5.925283|
|         552|   -5.903324|   -4.817937|   -5.027328|   -5.924607|
|         553|   -5.912591|   -4.822134|   -5.033854|   -5.923891|
|         554|   -5.922361|   -4.826756|   -5.040565|   -5.923097|
|         555|   -5.932508|   -4.831680|   -5.047375|   -5.922193|
|         556|   -5.942906|   -4.836796|   -5.054196|   -5.921155|
|         557|   -5.953426|   -4.842004|   -5.060947|   -5.919993|
|         558|   -5.963941|   -4.847215|   -5.067553|   -5.918654|
|         559|   -5.974330|   -4.852356|   -5.073949|   -5.917115|
|         560|   -5.984478|   -4.857362|   -5.080082|   -5.915375|
|         561|   -5.994277|   -4.862180|   -5.085907|   -5.913419|
|         562|   -6.003640|   -4.866769|   -5.091401|   -5.911257|
|         563|   -6.012487|   -4.871096|   -5.096546|   -5.908872|
|         564|   -6.020762|   -4.875135|   -5.101340|   -5.906271|
|         565|   -6.028425|   -4.878870|   -5.105792|   -5.903456|
|         566|   -6.035454|   -4.882285|   -5.109916|   -5.900394|
|         567|   -6.041846|   -4.885374|   -5.113732|   -5.897136|
|         568|   -6.047613|   -4.888131|   -5.117266|   -5.893646|
|         569|   -6.052785|   -4.890553|   -5.120553|   -5.889936|
|         570|   -6.057399|   -4.892639|   -5.123629|   -5.886033|
|         571|   -6.061501|   -4.894392|   -5.126528|   -5.881943|
|         572|   -6.065139|   -4.895817|   -5.129287|   -5.877622|
|         573|   -6.068359|   -4.896920|   -5.131933|   -5.873143|
|         574|   -6.071200|   -4.897712|   -5.134491|   -5.868447|
|         575|   -6.073695|   -4.898202|   -5.136979|   -5.863574|
|         576|   -6.075870|   -4.898404|   -5.139409|   -5.858503|
|         577|   -6.077742|   -4.898332|   -5.141789|   -5.853289|
|         578|   -6.079317|   -4.898002|   -5.144117|   -5.847916|
|         579|   -6.080596|   -4.897430|   -5.146394|   -5.842406|
|         580|   -6.081583|   -4.896633|   -5.148631|   -5.836774|
|         581|   -6.082273|   -4.895626|   -5.150843|   -5.831005|
|         582|   -6.082647|   -4.894426|   -5.153013|   -5.825179|
|         583|   -6.082672|   -4.893048|   -5.155096|   -5.819280|
|         584|   -6.082317|   -4.891507|   -5.157038|   -5.813353|
|         585|   -6.081558|   -4.889816|   -5.158797|   -5.807403|
|         586|   -6.080381|   -4.887986|   -5.160348|   -5.801466|
|         587|   -6.078783|   -4.886028|   -5.161675|   -5.795564|
|         588|   -6.076762|   -4.883950|   -5.162778|   -5.789715|
|         589|   -6.074315|   -4.881759|   -5.163651|   -5.783923|
|         590|   -6.071440|   -4.879461|   -5.164281|   -5.778229|
|         591|   -6.068131|   -4.877059|   -5.164644|   -5.772655|
|         592|   -6.064393|   -4.874557|   -5.164742|   -5.767235|
|         593|   -6.060237|   -4.871957|   -5.164597|   -5.761954|
|         594|   -6.055675|   -4.869263|   -5.164229|   -5.756828|
|         595|   -6.050707|   -4.866477|   -5.163647|   -5.751866|
|         596|   -6.045339|   -4.863605|   -5.162855|   -5.747095|
|         597|   -6.039585|   -4.860653|   -5.161879|   -5.742507|
|         598|   -6.033449|   -4.857632|   -5.160726|   -5.738103|
|         599|   -6.026942|   -4.854553|   -5.159401|   -5.733864|
|         600|   -6.020077|   -4.851430|   -5.157906|   -5.729807|
|         601|   -6.012869|   -4.848279|   -5.156251|   -5.725925|
|         602|   -6.005322|   -4.845119|   -5.154370|   -5.722195|
|         603|   -5.997466|   -4.841970|   -5.152235|   -5.718589|
|         604|   -5.989348|   -4.838855|   -5.149833|   -5.715065|
|         605|   -5.981023|   -4.835795|   -5.147179|   -5.711602|
|         606|   -5.972550|   -4.832813|   -5.144269|   -5.708210|
|         607|   -5.963993|   -4.829929|   -5.141100|   -5.704873|
|         608|   -5.955420|   -4.827163|   -5.137667|   -5.701561|
|         609|   -5.946908|   -4.824532|   -5.133971|   -5.698276|
|         610|   -5.938538|   -4.822049|   -5.130019|   -5.695020|
|         611|   -5.930396|   -4.819725|   -5.125825|   -5.691845|
|         612|   -5.922567|   -4.817570|   -5.121412|   -5.688710|
|         613|   -5.915136|   -4.815587|   -5.116807|   -5.685625|
|         614|   -5.908187|   -4.813778|   -5.112041|   -5.682640|
|         615|   -5.901800|   -4.812142|   -5.107156|   -5.679749|
|         616|   -5.896049|   -4.810675|   -5.102193|   -5.676976|
|         617|   -5.891003|   -4.809368|   -5.097201|   -5.674323|
|         618|   -5.886723|   -4.808212|   -5.092230|   -5.671785|
|         619|   -5.883261|   -4.807196|   -5.087330|   -5.669364|
|         620|   -5.880664|   -4.806307|   -5.082554|   -5.667071|
|         621|   -5.878964|   -4.805533|   -5.077952|   -5.664856|
|         622|   -5.878189|   -4.804858|   -5.073574|   -5.662754|
|         623|   -5.878355|   -4.804268|   -5.069474|   -5.660685|
|         624|   -5.879465|   -4.803743|   -5.065705|   -5.658676|
|         625|   -5.881511|   -4.803265|   -5.062312|   -5.656676|
|         626|   -5.884475|   -4.802816|   -5.059339|   -5.654578|
|         627|   -5.888331|   -4.802383|   -5.056821|   -5.652585|
|         628|   -5.893042|   -4.801953|   -5.054788|   -5.650439|
|         629|   -5.898556|   -4.801512|   -5.053265|   -5.648256|
|         630|   -5.904817|   -4.801051|   -5.052264|   -5.646007|
|         631|   -5.911752|   -4.800558|   -5.051794|   -5.643636|
|         632|   -5.919284|   -4.800025|   -5.051850|   -5.641228|
|         633|   -5.927330|   -4.799443|   -5.052421|   -5.638694|
|         634|   -5.935798|   -4.798803|   -5.053489|   -5.636096|
|         635|   -5.944597|   -4.798099|   -5.055020|   -5.633459|
|         636|   -5.953636|   -4.797325|   -5.056977|   -5.630679|
|         637|   -5.962832|   -4.796476|   -5.059314|   -5.627904|
|         638|   -5.972114|   -4.795549|   -5.061977|   -5.625086|
|         639|   -5.981417|   -4.794546|   -5.064910|   -5.622175|
|         640|   -5.990704|   -4.793468|   -5.068054|   -5.619328|
|         641|   -5.999958|   -4.792322|   -5.071354|   -5.616461|
|         642|   -6.009174|   -4.791116|   -5.074761|   -5.613561|
|         643|   -6.018384|   -4.789860|   -5.078232|   -5.610704|
|         644|   -6.027647|   -4.788569|   -5.081739|   -5.607956|
|         645|   -6.037028|   -4.787261|   -5.085264|   -5.605161|
|         646|   -6.046647|   -4.785946|   -5.088260|   -5.602511|
|         647|   -6.056518|   -4.784639|   -5.091021|   -5.599928|
|         648|   -6.066723|   -4.783365|   -5.093816|   -5.597426|
|         649|   -6.077443|   -4.782154|   -5.096603|   -5.595032|
|         650|   -6.088814|   -4.781039|   -5.099428|   -5.592730|
|         651|   -6.100961|   -4.780052|   -5.102362|   -5.590539|
|         652|   -6.114010|   -4.779231|   -5.105445|   -5.588457|
|         653|   -6.128071|   -4.778611|   -5.108689|   -5.586502|
|         654|   -6.143219|   -4.778228|   -5.112154|   -5.584627|
|         655|   -6.159523|   -4.778116|   -5.115855|   -5.582874|
|         656|   -6.177036|   -4.778306|   -5.119751|   -5.581230|
|         657|   -6.195738|   -4.778827|   -5.123833|   -5.579711|
|         658|   -6.215588|   -4.779704|   -5.128052|   -5.578292|
|         659|   -6.236516|   -4.780963|   -5.132329|   -5.576973|
|         660|   -6.258396|   -4.782625|   -5.136590|   -5.575758|
|         661|   -6.281044|   -4.784712|   -5.140778|   -5.574651|
|         662|   -6.304253|   -4.787241|   -5.144819|   -5.573654|
|         663|   -6.327757|   -4.790226|   -5.148646|   -5.572749|
|         664|   -6.351170|   -4.793681|   -5.152223|   -5.571975|
|         665|   -6.374042|   -4.797612|   -5.155502|   -5.571330|
|         666|   -6.395823|   -4.802017|   -5.158447|   -5.570803|
|         667|   -6.415774|   -4.806890|   -5.161041|   -5.570365|
|         668|   -6.433121|   -4.812218|   -5.163271|   -5.570083|
|         669|   -6.447084|   -4.817973|   -5.165133|   -5.569904|
|         670|   -6.456894|   -4.824129|   -5.166639|   -5.569807|
|         671|   -6.462075|   -4.830644|   -5.167810|   -5.569845|
|         672|   -6.462411|   -4.837470|   -5.168669|   -5.569943|
|         673|   -6.457992|   -4.844553|   -5.169243|   -5.570138|
|         674|   -6.449333|   -4.851827|   -5.169556|   -5.570412|
|         675|   -6.437123|   -4.859216|   -5.169630|   -5.570728|
|         676|   -6.422141|   -4.866641|   -5.169477|   -5.571131|
|         677|   -6.405203|   -4.874018|   -5.169104|   -5.571594|
|         678|   -6.386963|   -4.881265|   -5.168526|   -5.572032|
|         679|   -6.368142|   -4.888306|   -5.167751|   -5.572542|
|         680|   -6.349277|   -4.895075|   -5.166802|   -5.573094|
|         681|   -6.330697|   -4.901514|   -5.165718|   -5.573663|
|         682|   -6.312700|   -4.907565|   -5.164483|   -5.574242|
|         683|   -6.295442|   -4.913186|   -5.163077|   -5.574798|
|         684|   -6.279038|   -4.918340|   -5.161465|   -5.575358|
|         685|   -6.263573|   -4.922999|   -5.159593|   -5.575896|
|         686|   -6.249090|   -4.927157|   -5.157454|   -5.576386|
|         687|   -6.235658|   -4.930813|   -5.155015|   -5.576866|
|         688|   -6.223296|   -4.933988|   -5.152305|   -5.577330|
|         689|   -6.212009|   -4.936702|   -5.149341|   -5.577749|
|         690|   -6.201780|   -4.938975|   -5.146138|   -5.578082|
|         691|   -6.192611|   -4.940833|   -5.142765|   -5.578378|
|         692|   -6.184482|   -4.942310|   -5.139225|   -5.578635|
|         693|   -6.177299|   -4.943421|   -5.135571|   -5.578789|
|         694|   -6.171030|   -4.944181|   -5.131841|   -5.578944|
|         695|   -6.165601|   -4.944619|   -5.128029|   -5.579049|
|         696|   -6.160871|   -4.944737|   -5.124194|   -5.579043|
|         697|   -6.156805|   -4.944541|   -5.120353|   -5.579143|
|         698|   -6.153281|   -4.944076|   -5.116526|   -5.579114|
|         699|   -6.150166|   -4.943340|   -5.112783|   -5.579067|
|         700|   -6.147423|   -4.942360|   -5.109179|   -5.579140|
|         701|   -6.144962|   -4.941178|   -5.105770|   -5.579168|
|         702|   -6.142698|   -4.939787|   -5.102676|   -5.579320|
|         703|   -6.140565|   -4.938250|   -5.099993|   -5.579511|
|         704|   -6.138512|   -4.936666|   -5.097789|   -5.579756|
|         705|   -6.136517|   -4.935151|   -5.096088|   -5.580248|
|         706|   -6.134502|   -4.933814|   -5.094874|   -5.580737|
|         707|   -6.132431|   -4.932670|   -5.094115|   -5.581505|
|         708|   -6.130256|   -4.931820|   -5.093720|   -5.582380|
|         709|   -6.127954|   -4.931338|   -5.093582|   -5.583346|
|         710|   -6.125486|   -4.931320|   -5.093586|   -5.584543|
|         711|   -6.122843|   -4.931867|   -5.093651|   -5.585755|
|         712|   -6.120020|   -4.932964|   -5.093732|   -5.587192|
|         713|   -6.117009|   -4.934638|   -5.093828|   -5.588719|
|         714|   -6.113801|   -4.936793|   -5.093969|   -5.590418|
|         715|   -6.110372|   -4.939373|   -5.093938|   -5.592273|
|         716|   -6.106742|   -4.942306|   -5.093941|   -5.594284|
|         717|   -6.102899|   -4.945511|   -5.094118|   -5.596529|
|         718|   -6.098935|   -4.948954|   -5.094465|   -5.598908|
|         719|   -6.094854|   -4.952516|   -5.094987|   -5.601514|
|         720|   -6.090752|   -4.956167|   -5.095710|   -5.604252|
|         721|   -6.086622|   -4.959793|   -5.096641|   -5.607225|
|         722|   -6.082585|   -4.963363|   -5.097800|   -5.610386|
|         723|   -6.078632|   -4.966793|   -5.099184|   -5.613729|
|         724|   -6.074871|   -4.970055|   -5.100825|   -5.617229|
|         725|   -6.071308|   -4.973095|   -5.102718|   -5.620902|
|         726|   -6.068018|   -4.975897|   -5.104865|   -5.624706|
|         727|   -6.065028|   -4.978442|   -5.107262|   -5.628641|
|         728|   -6.062380|   -4.980732|   -5.109910|   -5.632657|
|         729|   -6.060095|   -4.982773|   -5.112810|   -5.636731|
|         730|   -6.058205|   -4.984581|   -5.115956|   -5.640854|
|         731|   -6.056733|   -4.986182|   -5.119347|   -5.644989|
|         732|   -6.055707|   -4.987606|   -5.122974|   -5.649130|
|         733|   -6.055139|   -4.988888|   -5.126826|   -5.653249|
|         734|   -6.055039|   -4.990063|   -5.130882|   -5.657351|
|         735|   -6.055407|   -4.991168|   -5.135117|   -5.661411|
|         736|   -6.056242|   -4.992237|   -5.139507|   -5.665418|
|         737|   -6.057532|   -4.993300|   -5.144022|   -5.669385|
|         738|   -6.059264|   -4.994384|   -5.148630|   -5.673307|
|         739|   -6.061414|   -4.995510|   -5.153300|   -5.677186|
|         740|   -6.063953|   -4.996685|   -5.157993|   -5.681023|
|         741|   -6.066844|   -4.997922|   -5.162683|   -5.684812|
|         742|   -6.070046|   -4.999220|   -5.167343|   -5.688531|
|         743|   -6.073503|   -5.000565|   -5.171939|   -5.692166|
|         744|   -6.077156|   -5.001951|   -5.176457|   -5.695699|
|         745|   -6.080944|   -5.003354|   -5.180865|   -5.699121|
|         746|   -6.084804|   -5.004755|   -5.185152|   -5.702397|
|         747|   -6.088671|   -5.006124|   -5.188751|   -5.705503|
|         748|   -6.092451|   -5.007425|   -5.191927|   -5.708401|
|         749|   -6.096067|   -5.008623|   -5.194891|   -5.711089|
|         750|   -6.099494|   -5.009694|   -5.197598|   -5.713543|
|         751|   -6.102697|   -5.010607|   -5.200058|   -5.715731|
|         752|   -6.105659|   -5.011334|   -5.202282|   -5.717605|
|         753|   -6.108361|   -5.011842|   -5.204295|   -5.719196|
|         754|   -6.110811|   -5.012108|   -5.206111|   -5.720474|
|         755|   -6.113019|   -5.012102|   -5.207740|   -5.721411|
|         756|   -6.115017|   -5.011798|   -5.209199|   -5.722016|
|         757|   -6.116846|   -5.011176|   -5.210493|   -5.722288|
|         758|   -6.118570|   -5.010212|   -5.211669|   -5.722241|
|         759|   -6.120254|   -5.008892|   -5.212753|   -5.721876|
|         760|   -6.121958|   -5.007203|   -5.213797|   -5.721194|
|         761|   -6.123734|   -5.005133|   -5.214840|   -5.720155|
|         762|   -6.125632|   -5.002667|   -5.215921|   -5.718815|
|         763|   -6.127691|   -4.999805|   -5.217061|   -5.717157|
|         764|   -6.129954|   -4.996548|   -5.218341|   -5.715136|
|         765|   -6.132454|   -4.992903|   -5.219775|   -5.712856|
|         766|   -6.135228|   -4.988900|   -5.221406|   -5.710265|
|         767|   -6.138264|   -4.984561|   -5.223218|   -5.707409|
|         768|   -6.141564|   -4.979913|   -5.225243|   -5.704224|
|         769|   -6.145096|   -4.974983|   -5.227439|   -5.700755|
|         770|   -6.148826|   -4.969802|   -5.229790|   -5.697001|
|         771|   -6.152736|   -4.964414|   -5.232263|   -5.693064|
|         772|   -6.156791|   -4.958873|   -5.234796|   -5.688913|
|         773|   -6.160944|   -4.953220|   -5.237352|   -5.684593|
|         774|   -6.165103|   -4.947485|   -5.239889|   -5.679916|
|         775|   -6.169229|   -4.941672|   -5.242316|   -5.675123|
|         776|   -6.173347|   -4.935851|   -5.244609|   -5.670207|
|         777|   -6.177313|   -4.930054|   -5.246711|   -5.664919|
|         778|   -6.181119|   -4.924285|   -5.248554|   -5.659665|
|         779|   -6.184683|   -4.918572|   -5.250100|   -5.654010|
|         780|   -6.187987|   -4.912919|   -5.251303|   -5.648537|
|         781|   -6.191050|   -4.907387|   -5.252177|   -5.642724|
|         782|   -6.193661|   -4.901938|   -5.252674|   -5.636940|
|         783|   -6.196085|   -4.896625|   -5.252768|   -5.631272|
|         784|   -6.198085|   -4.891469|   -5.252549|   -5.625393|
|         785|   -6.199709|   -4.886444|   -5.251961|   -5.619707|
|         786|   -6.201153|   -4.881613|   -5.251054|   -5.614177|
|         787|   -6.202166|   -4.876962|   -5.249964|   -5.608527|
|         788|   -6.202840|   -4.872490|   -5.247951|   -5.603117|
|         789|   -6.203321|   -4.868230|   -5.245171|   -5.597939|
|         790|   -6.203745|   -4.864221|   -5.242574|   -5.593055|
|         791|   -6.203859|   -4.860472|   -5.239935|   -5.588246|
|         792|   -6.203774|   -4.856974|   -5.237474|   -5.583669|
|         793|   -6.203689|   -4.853752|   -5.235017|   -5.579427|
|         794|   -6.203710|   -4.850850|   -5.232765|   -5.575574|
|         795|   -6.203813|   -4.848266|   -5.230674|   -5.571977|
|         796|   -6.203937|   -4.845993|   -5.228728|   -5.568647|
|         797|   -6.204105|   -4.844028|   -5.226903|   -5.565616|
|         798|   -6.204330|   -4.842368|   -5.225194|   -5.562833|
|         799|   -6.204540|   -4.840995|   -5.223561|   -5.560355|
|         800|   -6.204833|   -4.839906|   -5.222035|   -5.558133|
|         801|   -6.205118|   -4.839071|   -5.220591|   -5.556120|
|         802|   -6.205368|   -4.838465|   -5.219207|   -5.554342|
|         803|   -6.205586|   -4.838068|   -5.217862|   -5.552745|
|         804|   -6.205798|   -4.837873|   -5.216573|   -5.551390|
|         805|   -6.206181|   -4.837895|   -5.215276|   -5.550181|
|         806|   -6.206459|   -4.838082|   -5.213996|   -5.549040|
|         807|   -6.206635|   -4.838366|   -5.212733|   -5.548043|
|         808|   -6.206843|   -4.838744|   -5.211496|   -5.547294|
|         809|   -6.207259|   -4.839321|   -5.210220|   -5.546665|
|         810|   -6.207550|   -4.839979|   -5.208964|   -5.546052|
|         811|   -6.207535|   -4.840620|   -5.207676|   -5.545529|
|         812|   -6.207514|   -4.841263|   -5.206375|   -5.545281|
|         813|   -6.207678|   -4.842060|   -5.205013|   -5.544975|
|         814|   -6.207483|   -4.842821|   -5.203621|   -5.544685|
|         815|   -6.207174|   -4.843517|   -5.202205|   -5.544593|
|         816|   -6.206936|   -4.844273|   -5.200768|   -5.544464|
|         817|   -6.206474|   -4.844997|   -5.199260|   -5.544380|
|         818|   -6.205928|   -4.845639|   -5.197751|   -5.544385|
|         819|   -6.205389|   -4.846296|   -5.196222|   -5.544434|
|         820|   -6.204682|   -4.846911|   -5.194666|   -5.544371|
|         821|   -6.203747|   -4.847394|   -5.193088|   -5.544543|
|         822|   -6.203046|   -4.847913|   -5.191488|   -5.544590|
|         823|   -6.201973|   -4.848335|   -5.189846|   -5.544642|
|         824|   -6.200866|   -4.848644|   -5.188214|   -5.544780|
|         825|   -6.199928|   -4.848960|   -5.186674|   -5.544928|
|         826|   -6.198838|   -4.849214|   -5.185145|   -5.544973|
|         827|   -6.197596|   -4.849324|   -5.183717|   -5.545158|
|         828|   -6.196686|   -4.849455|   -5.182326|   -5.545345|
|         829|   -6.195703|   -4.849563|   -5.181022|   -5.545466|
|         830|   -6.194705|   -4.849587|   -5.179782|   -5.545661|
|         831|   -6.193910|   -4.849610|   -5.178664|   -5.545923|
|         832|   -6.193134|   -4.849615|   -5.177662|   -5.546161|
|         833|   -6.192078|   -4.849458|   -5.176760|   -5.546418|
|         834|   -6.190914|   -4.849103|   -5.175960|   -5.546776|
|         835|   -6.189617|   -4.848577|   -5.175287|   -5.547213|
|         836|   -6.188345|   -4.847914|   -5.174730|   -5.547821|
|         837|   -6.187440|   -4.847239|   -5.174304|   -5.548540|
|         838|   -6.186675|   -4.846557|   -5.174022|   -5.549291|
|         839|   -6.186149|   -4.845877|   -5.173839|   -5.550134|
|         840|   -6.185802|   -4.845193|   -5.173807|   -5.550972|
|         841|   -6.185646|   -4.844505|   -5.173905|   -5.551903|
|         842|   -6.185658|   -4.843818|   -5.174151|   -5.552786|
|         843|   -6.185801|   -4.843113|   -5.174499|   -5.553737|
|         844|   -6.186164|   -4.842414|   -5.175018|   -5.554664|
|         845|   -6.186661|   -4.841717|   -5.175692|   -5.555631|
|         846|   -6.187352|   -4.841033|   -5.176501|   -5.556581|
|         847|   -6.188238|   -4.840364|   -5.177460|   -5.557582|
|         848|   -6.189327|   -4.839749|   -5.178594|   -5.558570|
|         849|   -6.190611|   -4.839189|   -5.179878|   -5.559639|
|         850|   -6.192120|   -4.838689|   -5.181320|   -5.560697|
|         851|   -6.193857|   -4.838274|   -5.182945|   -5.561826|
|         852|   -6.195838|   -4.837957|   -5.184732|   -5.563009|
|         853|   -6.198051|   -4.837743|   -5.186691|   -5.564209|
|         854|   -6.200497|   -4.837647|   -5.188845|   -5.565497|
|         855|   -6.203210|   -4.837667|   -5.191149|   -5.566827|
|         856|   -6.206160|   -4.837827|   -5.193659|   -5.568190|
|         857|   -6.209355|   -4.838121|   -5.196338|   -5.569667|
|         858|   -6.212853|   -4.838576|   -5.199194|   -5.571176|
|         859|   -6.216621|   -4.839196|   -5.202248|   -5.572751|
|         860|   -6.220713|   -4.840001|   -5.205455|   -5.574438|
|         861|   -6.225047|   -4.840973|   -5.208869|   -5.576161|
|         862|   -6.229531|   -4.842083|   -5.212457|   -5.577970|
|         863|   -6.234107|   -4.843310|   -5.216199|   -5.579906|
|         864|   -6.238874|   -4.844669|   -5.220118|   -5.581940|
|         865|   -6.243906|   -4.846183|   -5.224170|   -5.584080|
|         866|   -6.249173|   -4.847874|   -5.228393|   -5.586350|
|         867|   -6.254695|   -4.849738|   -5.232738|   -5.588697|
|         868|   -6.260422|   -4.851765|   -5.237219|   -5.591106|
|         869|   -6.266314|   -4.853951|   -5.241799|   -5.593593|
|         870|   -6.272378|   -4.856295|   -5.246472|   -5.596174|
|         871|   -6.278577|   -4.858785|   -5.251220|   -5.598802|
|         872|   -6.284889|   -4.861416|   -5.256029|   -5.601472|
|         873|   -6.291260|   -4.864189|   -5.260866|   -5.604202|
|         874|   -6.297677|   -4.867093|   -5.265723|   -5.606982|
|         875|   -6.304092|   -4.870118|   -5.270590|   -5.609793|
|         876|   -6.310510|   -4.873257|   -5.275423|   -5.612655|
|         877|   -6.316878|   -4.876507|   -5.280245|   -5.615549|
|         878|   -6.323146|   -4.879864|   -5.284985|   -5.618476|
|         879|   -6.329261|   -4.883312|   -5.289670|   -5.621423|
|         880|   -6.335164|   -4.886841|   -5.294257|   -5.624390|
|         881|   -6.340857|   -4.890441|   -5.298724|   -5.627372|
|         882|   -6.346334|   -4.894103|   -5.303098|   -5.630376|
|         883|   -6.351537|   -4.897828|   -5.307328|   -5.633381|
|         884|   -6.356443|   -4.901606|   -5.311417|   -5.636372|
|         885|   -6.360988|   -4.905426|   -5.315377|   -5.639343|
|         886|   -6.365157|   -4.909276|   -5.319186|   -5.642284|
|         887|   -6.368926|   -4.913130|   -5.322872|   -5.645142|
|         888|   -6.372326|   -4.916971|   -5.326416|   -5.647922|
|         889|   -6.375392|   -4.920790|   -5.329820|   -5.650637|
|         890|   -6.378095|   -4.924588|   -5.333114|   -5.653292|
|         891|   -6.380459|   -4.928356|   -5.336316|   -5.655887|
|         892|   -6.382459|   -4.932089|   -5.339442|   -5.658425|
|         893|   -6.384108|   -4.935778|   -5.342511|   -5.660906|
|         894|   -6.385412|   -4.939418|   -5.345540|   -5.663335|
|         895|   -6.386377|   -4.943001|   -5.348519|   -5.665718|
|         896|   -6.387029|   -4.946528|   -5.351490|   -5.668068|
|         897|   -6.387383|   -4.949991|   -5.354452|   -5.670392|
|         898|   -6.387440|   -4.953395|   -5.357411|   -5.672698|
|         899|   -6.387220|   -4.956733|   -5.360381|   -5.674990|
|         900|   -6.386713|   -4.960005|   -5.363375|   -5.677273|
|         901|   -6.385923|   -4.963204|   -5.366393|   -5.679552|
|         902|   -6.384847|   -4.966326|   -5.369431|   -5.681835|
|         903|   -6.383498|   -4.969365|   -5.372508|   -5.684133|
|         904|   -6.381883|   -4.972318|   -5.375631|   -5.686457|
|         905|   -6.380014|   -4.975183|   -5.378792|   -5.688821|
|         906|   -6.377902|   -4.977957|   -5.381995|   -5.691241|
|         907|   -6.375566|   -4.980639|   -5.385244|   -5.693733|
|         908|   -6.373007|   -4.983230|   -5.388530|   -5.696310|
|         909|   -6.370235|   -4.985727|   -5.391857|   -5.698982|
|         910|   -6.367253|   -4.988130|   -5.395212|   -5.701762|
|         911|   -6.364060|   -4.990438|   -5.398484|   -5.704655|
|         912|   -6.360675|   -4.992646|   -5.401134|   -5.707660|
|         913|   -6.357064|   -4.994741|   -5.403888|   -5.710779|
|         914|   -6.353223|   -4.996723|   -5.406598|   -5.714018|
|         915|   -6.349224|   -4.998593|   -5.409309|   -5.717386|
|         916|   -6.345072|   -5.000351|   -5.411987|   -5.720886|
|         917|   -6.340799|   -5.001998|   -5.414653|   -5.724523|
|         918|   -6.336416|   -5.003535|   -5.417294|   -5.728297|
|         919|   -6.331945|   -5.004964|   -5.419909|   -5.732206|
|         920|   -6.327405|   -5.006287|   -5.422486|   -5.736250|
|         921|   -6.322813|   -5.007506|   -5.425020|   -5.740425|
|         922|   -6.318189|   -5.008620|   -5.427498|   -5.744721|
|         923|   -6.313557|   -5.009630|   -5.429908|   -5.749134|
|         924|   -6.308937|   -5.010539|   -5.432248|   -5.753659|
|         925|   -6.304349|   -5.011347|   -5.434503|   -5.758283|
|         926|   -6.299821|   -5.012058|   -5.436660|   -5.762997|
|         927|   -6.295373|   -5.012675|   -5.438717|   -5.767794|
|         928|   -6.291028|   -5.013202|   -5.440666|   -5.772659|
|         929|   -6.286814|   -5.013641|   -5.442493|   -5.777575|
|         930|   -6.282758|   -5.013999|   -5.444203|   -5.782532|
|         931|   -6.278881|   -5.014280|   -5.445797|   -5.787520|
|         932|   -6.275209|   -5.014489|   -5.447268|   -5.792523|
|         933|   -6.271770|   -5.014632|   -5.448624|   -5.797534|
|         934|   -6.268578|   -5.014714|   -5.449877|   -5.802542|
|         935|   -6.265658|   -5.014742|   -5.451028|   -5.807535|
|         936|   -6.263027|   -5.014723|   -5.452086|   -5.812503|
|         937|   -6.260698|   -5.014662|   -5.453071|   -5.817440|
|         938|   -6.258681|   -5.014565|   -5.453989|   -5.822335|
|         939|   -6.256990|   -5.014439|   -5.454849|   -5.827180|
|         940|   -6.255628|   -5.014290|   -5.455670|   -5.831972|
|         941|   -6.254598|   -5.014124|   -5.456466|   -5.836704|
|         942|   -6.253904|   -5.013946|   -5.457240|   -5.841368|
|         943|   -6.253562|   -5.013761|   -5.457409|   -5.845958|
|         944|   -6.253535|   -5.013569|   -5.457249|   -5.850460|
|         945|   -6.253807|   -5.013376|   -5.457129|   -5.854864|
|         946|   -6.254400|   -5.013187|   -5.456998|   -5.859178|
|         947|   -6.255330|   -5.013008|   -5.456848|   -5.863393|
|         948|   -6.256605|   -5.012844|   -5.456701|   -5.867510|
|         949|   -6.258229|   -5.012703|   -5.456601|   -5.871536|
|         950|   -6.260204|   -5.012589|   -5.456576|   -5.875466|
|         951|   -6.262532|   -5.012508|   -5.456648|   -5.879299|
|         952|   -6.265217|   -5.012468|   -5.456841|   -5.883034|
|         953|   -6.268260|   -5.012474|   -5.457186|   -5.886685|
|         954|   -6.271663|   -5.012533|   -5.457698|   -5.890248|
|         955|   -6.275434|   -5.012651|   -5.458380|   -5.893721|
|         956|   -6.279578|   -5.012836|   -5.459250|   -5.897102|
|         957|   -6.284102|   -5.013093|   -5.460328|   -5.900398|
|         958|   -6.289015|   -5.013432|   -5.461628|   -5.903617|
|         959|   -6.294330|   -5.013858|   -5.463157|   -5.906754|
|         960|   -6.300063|   -5.014378|   -5.464916|   -5.909806|
|         961|   -6.306229|   -5.015001|   -5.466914|   -5.912773|
|         962|   -6.312850|   -5.015733|   -5.469164|   -5.915659|
|         963|   -6.319948|   -5.016582|   -5.471671|   -5.918468|
|         964|   -6.327550|   -5.017555|   -5.474435|   -5.921195|
|         965|   -6.335685|   -5.018659|   -5.477459|   -5.923842|
|         966|   -6.344384|   -5.019901|   -5.480739|   -5.926402|
|         967|   -6.353681|   -5.021286|   -5.484280|   -5.928883|
|         968|   -6.363610|   -5.022821|   -5.488075|   -5.931283|
|         969|   -6.374205|   -5.024510|   -5.492112|   -5.933592|
|         970|   -6.385500|   -5.026358|   -5.496379|   -5.935813|
|         971|   -6.397527|   -5.028369|   -5.500869|   -5.937949|
|         972|   -6.410313|   -5.030546|   -5.505558|   -5.939995|
|         973|   -6.423883|   -5.032892|   -5.510416|   -5.941944|
|         974|   -6.438256|   -5.035409|   -5.515419|   -5.943801|
|         975|   -6.453445|   -5.038097|   -5.520533|   -5.945562|
|         976|   -6.469453|   -5.040959|   -5.525722|   -5.947225|
|         977|   -6.486272|   -5.043994|   -5.530947|   -5.948789|
|         978|   -6.503877|   -5.047203|   -5.536134|   -5.950224|
|         979|   -6.522277|   -5.050591|   -5.541236|   -5.951531|
|         980|   -6.541440|   -5.054161|   -5.546242|   -5.952724|
|         981|   -6.561296|   -5.057916|   -5.551128|   -5.953811|
|         982|   -6.581751|   -5.061858|   -5.555871|   -5.954800|
|         983|   -6.602660|   -5.065987|   -5.560445|   -5.955696|
|         984|   -6.623817|   -5.070305|   -5.564827|   -5.956503|
|         985|   -6.644939|   -5.074813|   -5.568992|   -5.957225|
|         986|   -6.665647|   -5.079511|   -5.572918|   -5.957866|
|         987|   -6.685449|   -5.084401|   -5.576584|   -5.958430|
|         988|   -6.703736|   -5.089480|   -5.579971|   -5.958918|
|         989|   -6.719795|   -5.094750|   -5.583062|   -5.959334|
|         990|   -6.732851|   -5.100209|   -5.585843|   -5.959681|
|         991|   -6.742152|   -5.105855|   -5.588303|   -5.959962|
[...]
|        8016|  -10.343739|   -9.413423|   -9.422950|   -7.776762|
|        8017|  -10.344316|   -9.411224|   -9.423527|   -7.776762|
|        8018|  -10.344955|   -9.409025|   -9.424164|   -7.776762|
|        8019|  -10.345656|   -9.406828|   -9.424861|   -7.776762|
|        8020|  -10.346417|   -9.404635|   -9.425619|   -7.776762|
|        8021|  -10.347241|   -9.402449|   -9.426435|   -7.776762|
|        8022|  -10.348125|   -9.400270|   -9.427312|   -7.776761|
|        8023|  -10.349071|   -9.398101|   -9.428249|   -7.776761|
|        8024|  -10.350078|   -9.395943|   -9.429246|   -7.776761|
|        8025|  -10.351146|   -9.393798|   -9.430303|   -7.776761|
|        8026|  -10.352276|   -9.391666|   -9.431421|   -7.776761|
|        8027|  -10.353467|   -9.389551|   -9.432598|   -7.776761|
|        8028|  -10.354720|   -9.387452|   -9.433836|   -7.776761|
|        8029|  -10.356034|   -9.385371|   -9.435135|   -7.776761|
|        8030|  -10.357409|   -9.383310|   -9.436494|   -7.776761|
|        8031|  -10.358847|   -9.381269|   -9.437915|   -7.776761|
|        8032|  -10.360346|   -9.379249|   -9.439396|   -7.776761|
|        8033|  -10.361907|   -9.377251|   -9.440939|   -7.776761|
|        8034|  -10.363530|   -9.375277|   -9.442543|   -7.776761|
|        8035|  -10.365216|   -9.373326|   -9.444209|   -7.776761|
|        8036|  -10.366964|   -9.371401|   -9.445937|   -7.776761|
|        8037|  -10.368774|   -9.369501|   -9.447728|   -7.776761|
|        8038|  -10.370648|   -9.367627|   -9.449581|   -7.776761|
|        8039|  -10.372584|   -9.365781|   -9.451498|   -7.776761|
|        8040|  -10.374584|   -9.363961|   -9.453478|   -7.776761|
|        8041|  -10.376648|   -9.362170|   -9.455521|   -7.776761|
|        8042|  -10.378776|   -9.360407|   -9.457629|   -7.776761|
|        8043|  -10.380968|   -9.358674|   -9.459801|   -7.776761|
|        8044|  -10.383225|   -9.356969|   -9.462039|   -7.776761|
|        8045|  -10.385547|   -9.355295|   -9.464341|   -7.776761|
|        8046|  -10.387934|   -9.353651|   -9.466710|   -7.776761|
|        8047|  -10.390387|   -9.352037|   -9.469146|   -7.776761|
|        8048|  -10.392906|   -9.350455|   -9.471648|   -7.776761|
|        8049|  -10.395493|   -9.348903|   -9.474219|   -7.776761|
|        8050|  -10.398146|   -9.347383|   -9.476857|   -7.776761|
|        8051|  -10.400867|   -9.345895|   -9.479565|   -7.776761|
|        8052|  -10.403657|   -9.344438|   -9.482341|   -7.776761|
|        8053|  -10.406515|   -9.343014|   -9.485188|   -7.776761|
|        8054|  -10.409442|   -9.341622|   -9.488106|   -7.776761|
|        8055|  -10.412440|   -9.340262|   -9.491096|   -7.776761|
|        8056|  -10.415508|   -9.338935|   -9.494158|   -7.776762|
|        8057|  -10.418648|   -9.337641|   -9.497293|   -7.776762|
|        8058|  -10.421860|   -9.336379|   -9.500502|   -7.776762|
|        8059|  -10.425144|   -9.335151|   -9.503786|   -7.776762|
|        8060|  -10.428501|   -9.333955|   -9.507145|   -7.776762|
|        8061|  -10.431933|   -9.332793|   -9.510581|   -7.776762|
|        8062|  -10.435440|   -9.331664|   -9.514095|   -7.776762|
|        8063|  -10.439023|   -9.330568|   -9.517687|   -7.776762|
|        8064|  -10.442682|   -9.329506|   -9.521359|   -7.776762|
|        8065|  -10.446419|   -9.328477|   -9.525111|   -7.776762|
|        8066|  -10.450234|   -9.327482|   -9.528945|   -7.776762|
|        8067|  -10.454129|   -9.326521|   -9.532862|   -7.776762|
|        8068|  -10.458104|   -9.325593|   -9.536862|   -7.776762|
|        8069|  -10.462161|   -9.324698|   -9.540947|   -7.776762|
|        8070|  -10.466300|   -9.323838|   -9.545119|   -7.776762|
|        8071|  -10.470523|   -9.323011|   -9.549379|   -7.776762|
|        8072|  -10.474830|   -9.322218|   -9.553727|   -7.776762|
|        8073|  -10.479223|   -9.321459|   -9.558165|   -7.776762|
|        8074|  -10.483703|   -9.320734|   -9.562695|   -7.776762|
|        8075|  -10.488271|   -9.320043|   -9.567318|   -7.776762|
|        8076|  -10.492929|   -9.319386|   -9.572035|   -7.776762|
|        8077|  -10.497677|   -9.318763|   -9.576848|   -7.776762|
|        8078|  -10.502518|   -9.318174|   -9.581759|   -7.776762|
|        8079|  -10.507452|   -9.317619|   -9.586769|   -7.776762|
|        8080|  -10.512480|   -9.317098|   -9.591880|   -7.776762|
|        8081|  -10.517606|   -9.316612|   -9.597093|   -7.776762|
|        8082|  -10.522829|   -9.316160|   -9.602411|   -7.776762|
|        8083|  -10.528152|   -9.315742|   -9.607835|   -7.776762|
|        8084|  -10.533575|   -9.315358|   -9.613366|   -7.776762|
|        8085|  -10.539102|   -9.315010|   -9.619008|   -7.776762|
|        8086|  -10.544732|   -9.314695|   -9.624761|   -7.776762|
|        8087|  -10.550469|   -9.314415|   -9.630628|   -7.776762|
|        8088|  -10.556313|   -9.314170|   -9.636612|   -7.776762|
|        8089|  -10.562268|   -9.313959|   -9.642713|   -7.776762|
|        8090|  -10.568334|   -9.313783|   -9.648936|   -7.776762|
|        8091|  -10.574513|   -9.313642|   -9.655280|   -7.776762|
|        8092|  -10.580808|   -9.313536|   -9.661750|   -7.776762|
|        8093|  -10.587220|   -9.313464|   -9.668348|   -7.776762|
|        8094|  -10.593752|   -9.313428|   -9.675076|   -7.776762|
|        8095|  -10.600405|   -9.313427|   -9.681936|   -7.776762|
|        8096|  -10.607183|   -9.313460|   -9.688931|   -7.776762|
|        8097|  -10.614086|   -9.313529|   -9.696065|   -7.776762|
|        8098|  -10.621118|   -9.313633|   -9.703340|   -7.776762|
|        8099|  -10.628281|   -9.313773|   -9.710758|   -7.776762|
|        8100|  -10.635576|   -9.313948|   -9.718323|   -7.776762|
|        8101|  -10.643007|   -9.314158|   -9.726037|   -7.776763|
|        8102|  -10.650576|   -9.314403|   -9.733904|   -7.776763|
|        8103|  -10.658285|   -9.314685|   -9.741927|   -7.776763|
|        8104|  -10.666137|   -9.315002|   -9.750110|   -7.776763|
|        8105|  -10.674134|   -9.315354|   -9.758454|   -7.776763|
|        8106|  -10.682279|   -9.315743|   -9.766964|   -7.776763|
|        8107|  -10.690575|   -9.316167|   -9.775643|   -7.776763|
|        8108|  -10.699022|   -9.316627|   -9.784494|   -7.776763|
|        8109|  -10.707626|   -9.317123|   -9.793521|   -7.776763|
|        8110|  -10.716386|   -9.317655|   -9.802726|   -7.776763|
|        8111|  -10.725306|   -9.318223|   -9.812114|   -7.776763|
|        8112|  -10.734389|   -9.318827|   -9.821687|   -7.776763|
|        8113|  -10.743635|   -9.319467|   -9.831449|   -7.776763|
|        8114|  -10.753047|   -9.320143|   -9.841402|   -7.776763|
|        8115|  -10.762627|   -9.320855|   -9.851549|   -7.776763|
|        8116|  -10.772376|   -9.321604|   -9.861893|   -7.776763|
|        8117|  -10.782295|   -9.322389|   -9.872437|   -7.776763|
|        8118|  -10.792384|   -9.323210|   -9.883180|   -7.776763|
|        8119|  -10.802644|   -9.324068|   -9.894126|   -7.776763|
|        8120|  -10.813074|   -9.324962|   -9.905275|   -7.776763|
|        8121|  -10.823673|   -9.325892|   -9.916626|   -7.776763|
|        8122|  -10.834438|   -9.326859|   -9.928178|   -7.776763|
|        8123|  -10.845368|   -9.327862|   -9.939929|   -7.776763|
|        8124|  -10.856457|   -9.328901|   -9.951876|   -7.776763|
|        8125|  -10.867701|   -9.329977|   -9.964012|   -7.776763|
|        8126|  -10.879091|   -9.331089|   -9.976332|   -7.776763|
|        8127|  -10.890619|   -9.332238|   -9.988824|   -7.776763|
|        8128|  -10.902272|   -9.333423|  -10.001477|   -7.776764|
|        8129|  -10.914039|   -9.334644|  -10.014275|   -7.776764|
|        8130|  -10.925900|   -9.335902|  -10.027198|   -7.776764|
|        8131|  -10.937838|   -9.337196|  -10.040222|   -7.776764|
|        8132|  -10.949826|   -9.338526|  -10.053318|   -7.776764|
|        8133|  -10.961838|   -9.339893|  -10.066451|   -7.776764|
|        8134|  -10.973840|   -9.341295|  -10.079578|   -7.776764|
|        8135|  -10.985794|   -9.342734|  -10.092652|   -7.776764|
|        8136|  -10.997656|   -9.344209|  -10.105613|   -7.776764|
|        8137|  -11.009376|   -9.345719|  -10.118396|   -7.776764|
|        8138|  -11.020896|   -9.347266|  -10.130925|   -7.776764|
|        8139|  -11.032153|   -9.348849|  -10.143114|   -7.776764|
|        8140|  -11.043078|   -9.350467|  -10.154868|   -7.776764|
|        8141|  -11.053593|   -9.352121|  -10.166084|   -7.776764|
|        8142|  -11.063617|   -9.353811|  -10.176649|   -7.776764|
|        8143|  -11.073061|   -9.355537|  -10.186448|   -7.776764|
|        8144|  -11.081837|   -9.357297|  -10.195361|   -7.776764|
|        8145|  -11.089854|   -9.359094|  -10.203270|   -7.776764|
|        8146|  -11.097022|   -9.360925|  -10.210065|   -7.776764|
|        8147|  -11.103257|   -9.362791|  -10.215645|   -7.776764|
|        8148|  -11.108482|   -9.364693|  -10.219926|   -7.776764|
|        8149|  -11.112631|   -9.366629|  -10.222845|   -7.776764|
|        8150|  -11.115654|   -9.368601|  -10.224364|   -7.776764|
|        8151|  -11.117514|   -9.370606|  -10.224471|   -7.776764|
|        8152|  -11.118197|   -9.372647|  -10.223183|   -7.776764|
|        8153|  -11.117704|   -9.374721|  -10.220543|   -7.776764|
|        8154|  -11.116058|   -9.376830|  -10.216619|   -7.776764|
|        8155|  -11.113299|   -9.378973|  -10.211498|   -7.776764|
|        8156|  -11.109483|   -9.381149|  -10.205281|   -7.776764|
|        8157|  -11.104678|   -9.383359|  -10.198082|   -7.776764|
|        8158|  -11.098965|   -9.385603|  -10.190017|   -7.776764|
|        8159|  -11.092428|   -9.387880|  -10.181205|   -7.776764|
|        8160|  -11.085158|   -9.390190|  -10.171760|   -7.776764|
|        8161|  -11.077243|   -9.392533|  -10.161791|   -7.776764|
|        8162|  -11.068773|   -9.394908|  -10.151400|   -7.776764|
|        8163|  -11.059832|   -9.397316|  -10.140679|   -7.776764|
|        8164|  -11.050499|   -9.399756|  -10.129711|   -7.776764|
|        8165|  -11.040849|   -9.402228|  -10.118568|   -7.776764|
|        8166|  -11.030949|   -9.404732|  -10.107314|   -7.776764|
|        8167|  -11.020859|   -9.407267|  -10.096004|   -7.776764|
|        8168|  -11.010632|   -9.409833|  -10.084686|   -7.776764|
|        8169|  -11.000318|   -9.412430|  -10.073397|   -7.776764|
|        8170|  -10.989956|   -9.415057|  -10.062173|   -7.776764|
|        8171|  -10.979583|   -9.417715|  -10.051039|   -7.776764|
|        8172|  -10.969230|   -9.420402|  -10.040019|   -7.776764|
|        8173|  -10.958922|   -9.423119|  -10.029130|   -7.776764|
|        8174|  -10.948682|   -9.425864|  -10.018387|   -7.776764|
|        8175|  -10.938529|   -9.428639|  -10.007802|   -7.776764|
|        8176|  -10.928477|   -9.431441|   -9.997383|   -7.776764|
|        8177|  -10.918539|   -9.434272|   -9.987136|   -7.776764|
|        8178|  -10.908725|   -9.437129|   -9.977066|   -7.776764|
|        8179|  -10.899043|   -9.440014|   -9.967176|   -7.776764|
|        8180|  -10.889501|   -9.442925|   -9.957468|   -7.776764|
|        8181|  -10.880102|   -9.445861|   -9.947941|   -7.776764|
|        8182|  -10.870850|   -9.448823|   -9.938596|   -7.776764|
|        8183|  -10.861748|   -9.451809|   -9.929432|   -7.776764|
|        8184|  -10.852797|   -9.454819|   -9.920448|   -7.776764|
|        8185|  -10.843998|   -9.457852|   -9.911640|   -7.776764|
|        8186|  -10.835351|   -9.460908|   -9.903007|   -7.776764|
|        8187|  -10.826855|   -9.463986|   -9.894545|   -7.776764|
|        8188|  -10.818511|   -9.467084|   -9.886253|   -7.776764|
|        8189|  -10.810316|   -9.470203|   -9.878127|   -7.776764|
|        8190|  -10.802269|   -9.473340|   -9.870164|   -7.776764|
|        8191|  -10.794369|   -9.476496|   -9.862360|   -7.776764|
|        8192|  -10.786614|   -9.479669|   -9.854712|   -7.776764|
|        8193|  -10.779001|   -9.482859|   -9.847217|   -7.776764|
|        8194|  -10.771528|   -9.486063|   -9.839872|   -7.776764|
|        8195|  -10.764194|   -9.489282|   -9.832673|   -7.776764|
|        8196|  -10.756996|   -9.492513|   -9.825617|   -7.776764|
|        8197|  -10.749931|   -9.495755|   -9.818702|   -7.776764|
|        8198|  -10.742998|   -9.499008|   -9.811924|   -7.776764|
|        8199|  -10.736195|   -9.502269|   -9.805280|   -7.776764|
|        8200|  -10.729518|   -9.505537|   -9.798767|   -7.776764|
|        8201|  -10.722966|   -9.508811|   -9.792383|   -7.776764|
|        8202|  -10.716536|   -9.512089|   -9.786124|   -7.776764|
|        8203|  -10.710227|   -9.515369|   -9.779988|   -7.776764|
|        8204|  -10.704037|   -9.518649|   -9.773973|   -7.776764|
|        8205|  -10.697962|   -9.521927|   -9.768076|   -7.776764|
|        8206|  -10.692002|   -9.525202|   -9.762295|   -7.776764|
|        8207|  -10.686154|   -9.528472|   -9.756628|   -7.776764|
|        8208|  -10.680417|   -9.531733|   -9.751071|   -7.776764|
|        8209|  -10.674789|   -9.534984|   -9.745624|   -7.776764|
|        8210|  -10.669267|   -9.538223|   -9.740285|   -7.776764|
|        8211|  -10.663851|   -9.541448|   -9.735050|   -7.776764|
|        8212|  -10.658539|   -9.544654|   -9.729919|   -7.776764|
|        8213|  -10.653328|   -9.547841|   -9.724890|   -7.776764|
|        8214|  -10.648219|   -9.551005|   -9.719960|   -7.776764|
|        8215|  -10.643208|   -9.554144|   -9.715129|   -7.776764|
|        8216|  -10.638295|   -9.557254|   -9.710395|   -7.776763|
|        8217|  -10.633479|   -9.560333|   -9.705756|   -7.776763|
|        8218|  -10.628757|   -9.563377|   -9.701211|   -7.776763|
|        8219|  -10.624130|   -9.566384|   -9.696758|   -7.776763|
|        8220|  -10.619595|   -9.569350|   -9.692397|   -7.776763|
|        8221|  -10.615151|   -9.572272|   -9.688125|   -7.776763|
|        8222|  -10.610798|   -9.575147|   -9.683942|   -7.776763|
|        8223|  -10.606534|   -9.577971|   -9.679847|   -7.776763|
|        8224|  -10.602359|   -9.580741|   -9.675838|   -7.776763|
|        8225|  -10.598271|   -9.583454|   -9.671915|   -7.776763|
|        8226|  -10.594269|   -9.586105|   -9.668076|   -7.776763|
|        8227|  -10.590353|   -9.588692|   -9.664320|   -7.776763|
|        8228|  -10.586521|   -9.591211|   -9.660647|   -7.776763|
|        8229|  -10.582773|   -9.593659|   -9.657056|   -7.776763|
|        8230|  -10.579108|   -9.596032|   -9.653545|   -7.776763|
|        8231|  -10.575525|   -9.598326|   -9.650115|   -7.776763|
|        8232|  -10.572024|   -9.600539|   -9.646763|   -7.776763|
|        8233|  -10.568603|   -9.602667|   -9.643490|   -7.776763|
|        8234|  -10.565262|   -9.604706|   -9.640294|   -7.776763|
|        8235|  -10.562001|   -9.606655|   -9.637176|   -7.776763|
|        8236|  -10.558818|   -9.608509|   -9.634133|   -7.776763|
|        8237|  -10.555713|   -9.610266|   -9.631167|   -7.776763|
|        8238|  -10.552686|   -9.611923|   -9.628275|   -7.776763|
|        8239|  -10.549736|   -9.613477|   -9.625458|   -7.776763|
|        8240|  -10.546861|   -9.614926|   -9.622714|   -7.776763|
|        8241|  -10.544063|   -9.616269|   -9.620044|   -7.776763|
|        8242|  -10.541340|   -9.617502|   -9.617446|   -7.776763|
|        8243|  -10.538691|   -9.618625|   -9.614921|   -7.776763|
|        8244|  -10.536117|   -9.619635|   -9.612467|   -7.776763|
|        8245|  -10.533616|   -9.620532|   -9.610085|   -7.776763|
|        8246|  -10.531189|   -9.621313|   -9.607773|   -7.776763|
|        8247|  -10.528834|   -9.621979|   -9.605532|   -7.776763|
|        8248|  -10.526552|   -9.622530|   -9.603360|   -7.776763|
|        8249|  -10.524342|   -9.622963|   -9.601258|   -7.776763|
|        8250|  -10.522203|   -9.623280|   -9.599225|   -7.776763|
|        8251|  -10.520135|   -9.623482|   -9.597260|   -7.776763|
|        8252|  -10.518138|   -9.623567|   -9.595363|   -7.776763|
|        8253|  -10.516211|   -9.623538|   -9.593535|   -7.776763|
|        8254|  -10.514354|   -9.623394|   -9.591773|   -7.776763|
|        8255|  -10.512567|   -9.623139|   -9.590079|   -7.776763|
|        8256|  -10.510849|   -9.622772|   -9.588452|   -7.776763|
|        8257|  -10.509200|   -9.622296|   -9.586891|   -7.776763|
|        8258|  -10.507619|   -9.621713|   -9.585396|   -7.776763|
|        8259|  -10.506107|   -9.621025|   -9.583966|   -7.776762|
|        8260|  -10.504662|   -9.620234|   -9.582602|   -7.776762|
|        8261|  -10.503285|   -9.619344|   -9.581304|   -7.776762|
|        8262|  -10.501976|   -9.618357|   -9.580070|   -7.776762|
|        8263|  -10.500733|   -9.617275|   -9.578900|   -7.776762|
|        8264|  -10.499557|   -9.616103|   -9.577795|   -7.776762|
|        8265|  -10.498447|   -9.614842|   -9.576754|   -7.776762|
|        8266|  -10.497403|   -9.613498|   -9.575776|   -7.776762|
|        8267|  -10.496426|   -9.612072|   -9.574862|   -7.776762|
|        8268|  -10.495513|   -9.610568|   -9.574011|   -7.776762|
|        8269|  -10.494667|   -9.608991|   -9.573224|   -7.776762|
|        8270|  -10.493885|   -9.607343|   -9.572499|   -7.776762|
|        8271|  -10.493168|   -9.605629|   -9.571836|   -7.776762|
|        8272|  -10.492516|   -9.603852|   -9.571236|   -7.776762|
|        8273|  -10.491928|   -9.602015|   -9.570698|   -7.776762|
|        8274|  -10.491404|   -9.600123|   -9.570222|   -7.776762|
|        8275|  -10.490944|   -9.598178|   -9.569808|   -7.776762|
|        8276|  -10.490548|   -9.596186|   -9.569455|   -7.776762|
|        8277|  -10.490216|   -9.594148|   -9.569163|   -7.776762|
|        8278|  -10.489947|   -9.592069|   -9.568933|   -7.776762|
|        8279|  -10.489741|   -9.589953|   -9.568764|   -7.776762|
|        8280|  -10.489598|   -9.587802|   -9.568656|   -7.776762|
|        8281|  -10.489518|   -9.585620|   -9.568609|   -7.776762|
|        8282|  -10.489501|   -9.583410|   -9.568622|   -7.776762|
|        8283|  -10.489546|   -9.581176|   -9.568696|   -7.776762|
|        8284|  -10.489654|   -9.578920|   -9.568831|   -7.776762|
|        8285|  -10.489824|   -9.576646|   -9.569025|   -7.776762|
|        8286|  -10.490057|   -9.574356|   -9.569281|   -7.776762|
|        8287|  -10.490351|   -9.572053|   -9.569596|   -7.776762|
|        8288|  -10.490708|   -9.569740|   -9.569971|   -7.776762|
|        8289|  -10.491126|   -9.567420|   -9.570407|   -7.776762|
|        8290|  -10.491606|   -9.565095|   -9.570902|   -7.776762|
|        8291|  -10.492148|   -9.562768|   -9.571458|   -7.776762|
|        8292|  -10.492751|   -9.560440|   -9.572074|   -7.776762|
|        8293|  -10.493417|   -9.558114|   -9.572749|   -7.776762|
|        8294|  -10.494144|   -9.555792|   -9.573485|   -7.776762|
|        8295|  -10.494932|   -9.553477|   -9.574281|   -7.776762|
|        8296|  -10.495782|   -9.551170|   -9.575137|   -7.776762|
|        8297|  -10.496694|   -9.548872|   -9.576053|   -7.776762|
|        8298|  -10.497667|   -9.546587|   -9.577029|   -7.776762|
|        8299|  -10.498702|   -9.544314|   -9.578065|   -7.776762|
|        8300|  -10.499798|   -9.542057|   -9.579162|   -7.776762|
|        8301|  -10.500957|   -9.539816|   -9.580319|   -7.776762|
|        8302|  -10.502177|   -9.537593|   -9.581537|   -7.776762|
|        8303|  -10.503459|   -9.535389|   -9.582816|   -7.776762|
|        8304|  -10.504802|   -9.533205|   -9.584155|   -7.776762|
|        8305|  -10.506208|   -9.531043|   -9.585556|   -7.776762|
|        8306|  -10.507677|   -9.528904|   -9.587018|   -7.776762|
|        8307|  -10.509207|   -9.526788|   -9.588541|   -7.776762|
|        8308|  -10.510800|   -9.524697|   -9.590126|   -7.776762|
|        8309|  -10.512456|   -9.522631|   -9.591773|   -7.776762|
|        8310|  -10.514174|   -9.520592|   -9.593482|   -7.776762|
|        8311|  -10.515956|   -9.518580|   -9.595254|   -7.776762|
|        8312|  -10.517801|   -9.516596|   -9.597088|   -7.776762|
|        8313|  -10.519709|   -9.514641|   -9.598986|   -7.776762|
