scsub> Executing:  'cd /home/hem1dev/Codes/SU2_Github_Mark_Test/SU2/Venturi'


WARNING: CONV_CRITERIA is deprecated. SU2 will choose the criteria automatically based on the CONV_FIELD.
That is, RESIDUAL for any RMS_* BGS_* value, and CAUCHY for coefficients such as DRAG etc.


-------------------------------------------------------------------------
|    ___ _   _ ___                                                      |
|   / __| | | |_  )   Release 7.1.1 "Blackbird"                         |
|   \__ \ |_| |/ /                                                      |
|   |___/\___//___|   Suite (Computational Fluid Dynamics Code)         |
|                                                                       |
-------------------------------------------------------------------------
| SU2 Project Website: https://su2code.github.io                        |
|                                                                       |
| The SU2 Project is maintained by the SU2 Foundation                   |
| (http://su2foundation.org)                                            |
-------------------------------------------------------------------------
| Copyright 2012-2021, SU2 Contributors                                 |
|                                                                       |
| SU2 is free software; you can redistribute it and/or                  |
| modify it under the terms of the GNU Lesser General Public            |
| License as published by the Free Software Foundation; either          |
| version 2.1 of the License, or (at your option) any later version.    |
|                                                                       |
| SU2 is distributed in the hope that it will be useful,                |
| but WITHOUT ANY WARRANTY; without even the implied warranty of        |
| MERCHANTABILITY or FITNESS FOR A PARTICULAR PURPOSE. See the GNU      |
| Lesser General Public License for more details.                       |
|                                                                       |
| You should have received a copy of the GNU Lesser General Public      |
| License along with SU2. If not, see <http://www.gnu.org/licenses/>.   |
-------------------------------------------------------------------------


WARNING: CONV_CRITERIA is deprecated. SU2 will choose the criteria automatically based on the CONV_FIELD.
That is, RESIDUAL for any RMS_* BGS_* value, and CAUCHY for coefficients such as DRAG etc.


Parsing config file for zone 0


WARNING: CONV_CRITERIA is deprecated. SU2 will choose the criteria automatically based on the CONV_FIELD.
That is, RESIDUAL for any RMS_* BGS_* value, and CAUCHY for coefficients such as DRAG etc.


----------------- Physical Case Definition ( Zone 0 ) -------------------
Incompressible RANS equations.
Turbulence model: Menter's SST
Hybrid RANS/LES: No Hybrid RANS/LES
No restart solution, use the values at infinity (freestream).
Dimensional simulation.
The reference area is 1 m^2.
The semi-span will be computed using the max y(3D) value.
The reference length is 1 m.
Input mesh file name: c6_cms_venturi.cgns

--------------- Space Numerical Integration ( Zone 0 ) ------------------
Flux difference splitting (FDS) upwind scheme for the flow inviscid terms.
Second order integration in space, with slope limiter.
No slope-limiting method. 
Average of gradients with correction (viscous flow terms).
Average of gradients with correction (viscous turbulence terms).
Gradient for upwind reconstruction: inverse-distance weighted Least-Squares.
Gradient for viscous and source terms: inverse-distance weighted Least-Squares.

--------------- Time Numerical Integration  ( Zone 0 ) ------------------
Local time stepping (steady state simulation).
Euler implicit method for the flow equations.
FGMRES is used for solving the linear system.
Using a ILU(0) preconditioning.
Convergence criteria of the linear solver: 1e-08.
Max number of linear iterations: 50.
No CFL adaptation.
Courant-Friedrichs-Lewy number:        1
Euler implicit time integration for the turbulence model.

------------------ Convergence Criteria  ( Zone 0 ) ---------------------
Maximum number of solver subiterations: 50000.
Begin convergence monitoring at iteration 10.
Residual minimum value: 1e-10.
Cauchy series min. value: 1e-06.
Number of Cauchy elements: 100.
Begin windowed time average at iteration 0.

-------------------- Output Information ( Zone 0 ) ----------------------
Writing solution files every 5000 iterations.
Writing the convergence history file every 1 inner iterations.
Writing the screen convergence history every 1 inner iterations.
The tabular file format is CSV (.csv).
Convergence history file name: history_test.
Forces breakdown file name: forces_breakdown.dat.
Surface file name: surface_flow_venturi_mixturedensity_30kW_fine_test.
Volume file name: flow_venturi_mixturedensity_30kW_fine_test.
Restart file name: restart_venturi_mixturedensity_30kW_fine_test.dat.

------------- Config File Boundary Information ( Zone 0 ) ---------------
+-----------------------------------------------------------------------+
|                        Marker Type|                        Marker Name|
+-----------------------------------------------------------------------+
|                     Symmetry plane|                               axis|
+-----------------------------------------------------------------------+
|                     Inlet boundary|                          gas_inlet|
|                                   |                          air_inlet|
+-----------------------------------------------------------------------+
|                    Outlet boundary|                             outlet|
+-----------------------------------------------------------------------+
|                     Heat flux wall|            wall-component1-surface|
+-----------------------------------------------------------------------+

-------------------- Output Preprocessing ( Zone 0 ) --------------------
Screen output fields: INNER_ITER, RMS_PRESSURE, RMS_VELOCITY-X, RMS_VELOCITY-Y, RMS_PASSIVE_SCALAR
History output group(s): RMS_RES, AERO_COEFF, FLOW_COEFF
Convergence field(s): RMS_PRESSURE, RMS_VELOCITY-X, RMS_VELOCITY-Y, RMS_TKE
Warning: No (valid) fields chosen for time convergence monitoring. Time convergence monitoring inactive.
  Info: Ignoring the following volume output fields/groups:
  SOURCE, LOOKUP
Volume output fields: DENSITY, SOLUTION, PRIMITIVE, RESIDUAL, COORDINATES

------------------- Geometry Preprocessing ( Zone 0 ) -------------------
Reading the CGNS file: c6_cms_venturi.cgns.
CGNS file contains 1 database(s).
Database 1, Base:  cell dimension of 2, physical dimension of 2.
1 total zone(s).
Zone 1, Zone: 292948 total vertices, 295883 total elements.
Loading CoordinateX values into linear partitions.
Loading CoordinateY values into linear partitions.
Distributing connectivity across all ranks.
Number of connectivity sections is 6.
Section gas_inlet contains 51 elements of type Mixed.
Section air_inlet contains 150 elements of type Mixed.
Section outlet contains 157 elements of type Mixed.
Section axis contains 1721 elements of type Mixed.
Section component1-surface contains 290183 elements of type Mixed.
Section wall-component1-surface contains 3621 elements of type Mixed.
Loading surface section gas_inlet from file.
Loading surface section air_inlet from file.
Loading surface section outlet from file.
Loading surface section axis from file.
Loading volume section component1-surface from file.
Loading surface section wall-component1-surface from file.
Two dimensional problem.
292948 grid points before partitioning.
290183 volume elements before partitioning.
5 surface markers.
51 boundary elements in index 0 (Marker = gas_inlet).
150 boundary elements in index 1 (Marker = air_inlet).
157 boundary elements in index 2 (Marker = outlet).
1721 boundary elements in index 3 (Marker = axis).
3621 boundary elements in index 4 (Marker = wall-component1-surface).
Executing the partitioning functions.
Building the graph adjacency structure.
Calling ParMETIS... graph partitioning complete (13666 edge cuts).
Distributing ParMETIS coloring.
Rebalancing vertices.
Rebalancing volume element connectivity.
Rebalancing markers and surface elements.
320626 vertices including ghost points. 
303885 interior elements including halo cells. 
174 triangles.
303711 quadrilaterals.
Establishing MPI communication patterns.
Setting point connectivity.
Renumbering points (Reverse Cuthill McKee Ordering).
Recomputing point connectivity.
Setting element connectivity.
Checking the numerical grid orientation.
All volume elements are correctly orientend.
All surface elements are correctly orientend.
Identifying edges and vertices.
Setting the control volume structure.
Area of the computational grid: 0.0028601.
Searching for the closest normal neighbors to the surfaces.
Storing a mapping from global to local point index.
Compute the surface curvature.
Max K: 25766.3. Mean K: 66.0693. Standard deviation K: 1007.76.
Checking for periodicity.
Computing mesh quality statistics for the dual control volumes.
+--------------------------------------------------------------+
|           Mesh Quality Metric|        Minimum|        Maximum|
+--------------------------------------------------------------+
|    Orthogonality Angle (deg.)|        45.2115|             90|
|     CV Face Area Aspect Ratio|              1|        10.3208|
|           CV Sub-Volume Ratio|              1|        9.85984|
+--------------------------------------------------------------+
Finding max control volume width.
Communicating number of neighbors.
Wetted area = 0 m^2.
Area projection in the x-plane = 0 m, y-plane = 0 m.
Max. coordinate in the x-direction = -1e+10 m, y-direction = -1e+10 m.
Min. coordinate in the x-direction = 1e+10 m, y-direction = 1e+10 m.
Checking if Euler & Symmetry markers are straight/plane:
Boundary marker axis is a single straight.
Computing wall distances.

-------------------- Solver Preprocessing ( Zone 0 ) --------------------
Incompressible flow: rho_ref, vel_ref, temp_ref, p_ref
are set to 1.0 in order to perform a dimensional calculation.
Force coefficients computed using initial values.
The reference area for force coeffs. is 1 m^2.
The reference length for force coeffs. is 1 m.
The pressure is decomposed into thermodynamic and dynamic components.
The initial value of the dynamic pressure is 0.
Mach number: 0, computed using fluid speed of sound.
For external flows, the initial state is imposed at the far-field.
Angle of attack (deg): 0, computed using the initial velocity.
Side slip angle (deg): 0, computed using the initial velocity.
Reynolds number per meter: 66852.4, computed using initial values.
Reynolds number is a byproduct of inputs only (not used internally).
SI units only. The grid should be dimensional (meters).
Energy equation is active and coupled for variable density.

-- Models:
+------------------------------------------------------------------------------+
|          Viscosity Model|        Conductivity Model|              Fluid Model|
+------------------------------------------------------------------------------+
|               SUTHERLAND|          CONSTANT_PRANDTL|+------------------------------------------------------------------------------+
-- Fluid properties:
+------------------------------------------------------------------------------+
|                  Name|    Dim. value|    Ref. value|      Unit|Non-dim. value|
+------------------------------------------------------------------------------+
|        Ref. Viscosity|     1.716e-05|             1|   N.s/m^2|     1.716e-05|
|      Sutherland Temp.|        273.15|             1|         K|        273.15|
|     Sutherland Const.|         110.4|             1|         K|         110.4|
+------------------------------------------------------------------------------+
|        Prandtl (Lam.)|             -|             -|         -|          0.72|
|       Prandtl (Turb.)|             -|             -|         -|           0.9|
+------------------------------------------------------------------------------+
-- Initial and free-stream conditions:
+------------------------------------------------------------------------------+
|                  Name|    Dim. value|    Ref. value|      Unit|Non-dim. value|
+------------------------------------------------------------------------------+
|      Dynamic Pressure|             0|             1|        Pa|             0|
|        Total Pressure|           0.6|             1|        Pa|           0.6|
|               Density|           1.2|             1|    kg/m^3|           1.2|
|           Temperature|           300|             1|         K|           300|
|            Velocity-X|             1|             1|       m/s|             1|
|            Velocity-Y|             0|             1|       m/s|             0|
|    Velocity Magnitude|             1|             1|       m/s|             1|
+------------------------------------------------------------------------------+
|             Viscosity|     1.795e-05|             1|   N.s/m^2|     1.795e-05|
|          Conductivity|             -|             1|   W/m^2.K|             -|
|     Turb. Kin. Energy|       0.00375|             1|   m^2/s^2|       0.00375|
|     Spec. Dissipation|       25.0696|             1|       1/s|       25.0696|
+------------------------------------------------------------------------------+
|           Mach Number|             -|             -|         -|             0|
|       Reynolds Number|             -|             -|         -|       66852.4|
+------------------------------------------------------------------------------+
Initialize Jacobian structure (Navier-Stokes). MG level: 0.
Initialize Jacobian structure (passive scalar model).
Initialize Jacobian structure (SST model).

------------------- Numerics Preprocessing ( Zone 0 ) -------------------

----------------- Integration Preprocessing ( Zone 0 ) ------------------

------------------- Iteration Preprocessing ( Zone 0 ) ------------------
Euler/Navier-Stokes/RANS fluid iteration.

------------------------------ Begin Solver -----------------------------

Simulation Run using the Single-zone Driver
Initializing passive scalar (initial condition).
initialization = 1 1
+----------------------------------------------------------------+
|  Inner_Iter|      rms[P]|      rms[U]|      rms[V]|      rms[c]|
+----------------------------------------------------------------+
|           0|   -4.994576|   -4.724955|   -4.242379|   -5.773803|
|           1|   -4.782950|   -4.682334|   -4.000178|   -5.657605|
|           2|   -4.884103|   -4.656598|   -4.005863|   -5.626307|
|           3|   -4.925379|   -4.643055|   -3.992789|   -5.594329|
|           4|   -4.954509|   -4.633842|   -3.981373|   -5.555975|
|           5|   -4.978664|   -4.626021|   -3.971572|   -5.512289|
|           6|   -5.000100|   -4.619079|   -3.962751|   -5.463874|
|           7|   -5.019744|   -4.613000|   -3.954366|   -5.413635|
|           8|   -5.038075|   -4.607589|   -3.946078|   -5.364226|
|           9|   -5.055352|   -4.602507|   -3.937798|   -5.317492|
|          10|   -5.071739|   -4.597459|   -3.929644|   -5.274776|
|          11|   -5.087170|   -4.592310|   -3.921847|   -5.236224|
|          12|   -5.101505|   -4.587018|   -3.914622|   -5.201787|
|          13|   -5.114259|   -4.581481|   -3.908601|   -5.172670|
|          14|   -5.125567|   -4.575541|   -3.902756|   -5.147801|
|          15|   -5.135811|   -4.569233|   -3.897259|   -5.126465|
|          16|   -5.145263|   -4.562608|   -3.892143|   -5.108069|
|          17|   -5.154104|   -4.555764|   -3.887430|   -5.092134|
|          18|   -5.162449|   -4.548839|   -3.883135|   -5.078277|
|          19|   -5.170360|   -4.541964|   -3.879251|   -5.066177|
|          20|   -5.177864|   -4.535274|   -3.875762|   -5.055555|
|          21|   -5.184966|   -4.528875|   -3.872647|   -5.046176|
|          22|   -5.191649|   -4.522854|   -3.869883|   -5.037855|
|          23|   -5.197816|   -4.517269|   -3.867369|   -5.030887|
|          24|   -5.203454|   -4.512148|   -3.865096|   -5.025148|
|          25|   -5.208563|   -4.507505|   -3.863071|   -5.020635|
|          26|   -5.213166|   -4.503205|   -3.861241|   -5.017177|
|          27|   -5.217372|   -4.499216|   -3.859563|   -5.014580|
|          28|   -5.221283|   -4.495491|   -3.857999|   -5.012655|
|          29|   -5.224985|   -4.492025|   -3.856525|   -5.011212|
|          30|   -5.228549|   -4.488813|   -3.855130|   -5.010064|
|          31|   -5.232022|   -4.485859|   -3.853814|   -5.009034|
|          32|   -5.235434|   -4.483174|   -3.852584|   -5.007957|
|          33|   -5.238783|   -4.480766|   -3.851460|   -5.006709|
|          34|   -5.242054|   -4.478622|   -3.850450|   -5.005309|
|          35|   -5.245288|   -4.476712|   -3.849551|   -5.003822|
|          36|   -5.248512|   -4.475002|   -3.848764|   -5.002281|
|          37|   -5.251723|   -4.473467|   -3.848097|   -5.000739|
|          38|   -5.254888|   -4.472069|   -3.847560|   -4.999262|
|          39|   -5.257962|   -4.470793|   -3.847161|   -4.997920|
|          40|   -5.260894|   -4.469629|   -3.846906|   -4.996780|
|          41|   -5.263630|   -4.468574|   -3.846792|   -4.995888|
|          42|   -5.266128|   -4.467619|   -3.846815|   -4.995265|
|          43|   -5.268359|   -4.466753|   -3.846971|   -4.994919|
|          44|   -5.270310|   -4.465976|   -3.847263|   -4.994838|
|          45|   -5.272001|   -4.465272|   -3.847668|   -4.995053|
|          46|   -5.273487|   -4.464628|   -3.848155|   -4.995535|
|          47|   -5.274831|   -4.464022|   -3.848700|   -4.996240|
|          48|   -5.276084|   -4.463445|   -3.849283|   -4.997125|
|          49|   -5.277284|   -4.462883|   -3.849892|   -4.998151|
|          50|   -5.278461|   -4.462324|   -3.850526|   -4.999254|
|          51|   -5.279627|   -4.461764|   -3.851184|   -5.000393|
|          52|   -5.280783|   -4.461209|   -3.851870|   -5.001531|
|          53|   -5.281915|   -4.460652|   -3.852590|   -5.002643|
|          54|   -5.283004|   -4.460097|   -3.853355|   -5.003721|
|          55|   -5.284039|   -4.459549|   -3.854174|   -5.004761|
|          56|   -5.285025|   -4.458992|   -3.855044|   -5.005757|
|          57|   -5.285959|   -4.458421|   -3.855955|   -5.006714|
|          58|   -5.286840|   -4.457827|   -3.856899|   -5.007636|
|          59|   -5.287667|   -4.457211|   -3.857868|   -5.008532|
|          60|   -5.288438|   -4.456569|   -3.858849|   -5.009410|
|          61|   -5.289152|   -4.455899|   -3.859832|   -5.010275|
|          62|   -5.289731|   -4.455206|   -3.860764|   -5.011393|
|          63|   -5.290279|   -4.454500|   -3.861666|   -5.012428|
|          64|   -5.290811|   -4.453781|   -3.862547|   -5.013377|
|          65|   -5.291337|   -4.453050|   -3.863405|   -5.014252|
|          66|   -5.291865|   -4.452312|   -3.864241|   -5.015059|
|          67|   -5.292402|   -4.451572|   -3.865053|   -5.015803|
|          68|   -5.292953|   -4.450840|   -3.865842|   -5.016483|
|          69|   -5.293518|   -4.450125|   -3.866608|   -5.017099|
|          70|   -5.294095|   -4.449438|   -3.867351|   -5.017652|
|          71|   -5.294681|   -4.448788|   -3.868071|   -5.018148|
|          72|   -5.295271|   -4.448179|   -3.868771|   -5.018584|
|          73|   -5.295862|   -4.447615|   -3.869452|   -5.018964|
|          74|   -5.296452|   -4.447100|   -3.870112|   -5.019295|
|          75|   -5.297037|   -4.446634|   -3.870748|   -5.019586|
|          76|   -5.297615|   -4.446218|   -3.871359|   -5.019845|
|          77|   -5.298161|   -4.445852|   -3.871929|   -5.020174|
|          78|   -5.298648|   -4.445534|   -3.872441|   -5.020655|
|          79|   -5.299152|   -4.445258|   -3.872915|   -5.021043|
|          80|   -5.299676|   -4.445019|   -3.873354|   -5.021359|
|          81|   -5.300220|   -4.444810|   -3.873761|   -5.021618|
|          82|   -5.300781|   -4.444625|   -3.874141|   -5.021832|
|          83|   -5.301356|   -4.444453|   -3.874496|   -5.022008|
|          84|   -5.301942|   -4.444289|   -3.874829|   -5.022153|
|          85|   -5.302537|   -4.444124|   -3.875143|   -5.022270|
|          86|   -5.303137|   -4.443949|   -3.875439|   -5.022363|
|          87|   -5.303742|   -4.443758|   -3.875718|   -5.022437|
|          88|   -5.304349|   -4.443543|   -3.875980|   -5.022496|
|          89|   -5.304959|   -4.443297|   -3.876227|   -5.022546|
|          90|   -5.305570|   -4.443016|   -3.876457|   -5.022590|
|          91|   -5.306182|   -4.442694|   -3.876670|   -5.022633|
|          92|   -5.306794|   -4.442327|   -3.876864|   -5.022681|
|          93|   -5.307407|   -4.441914|   -3.877037|   -5.022735|
|          94|   -5.307981|   -4.441454|   -3.877169|   -5.022956|
|          95|   -5.308551|   -4.440952|   -3.877268|   -5.023192|
|          96|   -5.309143|   -4.440409|   -3.877342|   -5.023390|
|          97|   -5.309756|   -4.439833|   -3.877396|   -5.023563|
|          98|   -5.310385|   -4.439228|   -3.877437|   -5.023718|
|          99|   -5.311026|   -4.438599|   -3.877470|   -5.023861|
|         100|   -5.311674|   -4.437951|   -3.877498|   -5.024000|
|         101|   -5.312327|   -4.437291|   -3.877523|   -5.024139|
|         102|   -5.312982|   -4.436624|   -3.877547|   -5.024283|
|         103|   -5.313636|   -4.435954|   -3.877572|   -5.024436|
|         104|   -5.314286|   -4.435287|   -3.877597|   -5.024601|
|         105|   -5.314933|   -4.434627|   -3.877624|   -5.024782|
|         106|   -5.315574|   -4.433978|   -3.877652|   -5.024979|
|         107|   -5.316210|   -4.433340|   -3.877681|   -5.025194|
|         108|   -5.316840|   -4.432718|   -3.877711|   -5.025429|
|         109|   -5.317464|   -4.432112|   -3.877741|   -5.025683|
|         110|   -5.318074|   -4.431522|   -3.877770|   -5.025978|
|         111|   -5.318639|   -4.430949|   -3.877783|   -5.026389|
|         112|   -5.319208|   -4.430394|   -3.877795|   -5.026789|
|         113|   -5.319785|   -4.429855|   -3.877808|   -5.027184|
|         114|   -5.320372|   -4.429329|   -3.877827|   -5.027579|
|         115|   -5.320967|   -4.428818|   -3.877854|   -5.027980|
|         116|   -5.321567|   -4.428318|   -3.877893|   -5.028389|
|         117|   -5.322169|   -4.427828|   -3.877945|   -5.028811|
|         118|   -5.322768|   -4.427344|   -3.878011|   -5.029252|
|         119|   -5.323364|   -4.426868|   -3.878092|   -5.029709|
|         120|   -5.323954|   -4.426401|   -3.878188|   -5.030181|
|         121|   -5.324535|   -4.425946|   -3.878300|   -5.030670|
|         122|   -5.325106|   -4.425503|   -3.878427|   -5.031174|
|         123|   -5.325666|   -4.425073|   -3.878571|   -5.031694|
|         124|   -5.326216|   -4.424657|   -3.878730|   -5.032228|
|         125|   -5.326755|   -4.424259|   -3.878901|   -5.032777|
|         126|   -5.327285|   -4.423880|   -3.879084|   -5.033340|
|         127|   -5.327785|   -4.423521|   -3.879267|   -5.033966|
|         128|   -5.328268|   -4.423186|   -3.879450|   -5.034620|
|         129|   -5.328748|   -4.422877|   -3.879634|   -5.035269|
|         130|   -5.329226|   -4.422597|   -3.879822|   -5.035914|
|         131|   -5.329700|   -4.422347|   -3.880016|   -5.036559|
|         132|   -5.330165|   -4.422132|   -3.880218|   -5.037202|
|         133|   -5.330620|   -4.421950|   -3.880429|   -5.037846|
|         134|   -5.331062|   -4.421803|   -3.880650|   -5.038491|
|         135|   -5.331489|   -4.421691|   -3.880879|   -5.039137|
|         136|   -5.331901|   -4.421615|   -3.881117|   -5.039785|
|         137|   -5.332295|   -4.421574|   -3.881361|   -5.040433|
|         138|   -5.332672|   -4.421564|   -3.881609|   -5.041085|
|         139|   -5.333031|   -4.421588|   -3.881861|   -5.041738|
|         140|   -5.333373|   -4.421646|   -3.882117|   -5.042388|
|         141|   -5.333699|   -4.421739|   -3.882373|   -5.043034|
|         142|   -5.334010|   -4.421866|   -3.882631|   -5.043675|
|         143|   -5.334302|   -4.422024|   -3.882886|   -5.044325|
|         144|   -5.334565|   -4.422212|   -3.883132|   -5.045005|
|         145|   -5.334820|   -4.422427|   -3.883370|   -5.045670|
|         146|   -5.335070|   -4.422667|   -3.883602|   -5.046321|
|         147|   -5.335314|   -4.422931|   -3.883830|   -5.046959|
|         148|   -5.335552|   -4.423215|   -3.884053|   -5.047586|
|         149|   -5.335783|   -4.423517|   -3.884276|   -5.048204|
|         150|   -5.336008|   -4.423833|   -3.884497|   -5.048814|
|         151|   -5.336226|   -4.424158|   -3.884718|   -5.049416|
|         152|   -5.336437|   -4.424489|   -3.884939|   -5.050013|
|         153|   -5.336642|   -4.424823|   -3.885160|   -5.050603|
|         154|   -5.336842|   -4.425156|   -3.885381|   -5.051188|
|         155|   -5.337038|   -4.425484|   -3.885602|   -5.051766|
|         156|   -5.337229|   -4.425803|   -3.885822|   -5.052341|
|         157|   -5.337418|   -4.426112|   -3.886040|   -5.052909|
|         158|   -5.337606|   -4.426408|   -3.886257|   -5.053472|
|         159|   -5.337790|   -4.426689|   -3.886472|   -5.054034|
|         160|   -5.337961|   -4.426951|   -3.886679|   -5.054619|
|         161|   -5.338131|   -4.427193|   -3.886877|   -5.055195|
|         162|   -5.338303|   -4.427415|   -3.887069|   -5.055761|
|         163|   -5.338476|   -4.427610|   -3.887253|   -5.056323|
|         164|   -5.338649|   -4.427780|   -3.887430|   -5.056877|
|         165|   -5.338822|   -4.427924|   -3.887600|   -5.057424|
|         166|   -5.338994|   -4.428041|   -3.887763|   -5.057966|
|         167|   -5.339163|   -4.428130|   -3.887919|   -5.058501|
|         168|   -5.339330|   -4.428192|   -3.888067|   -5.059032|
|         169|   -5.339493|   -4.428225|   -3.888205|   -5.059558|
|         170|   -5.339651|   -4.428229|   -3.888334|   -5.060079|
|         171|   -5.339805|   -4.428206|   -3.888452|   -5.060597|
|         172|   -5.339956|   -4.428154|   -3.888558|   -5.061111|
|         173|   -5.340101|   -4.428070|   -3.888651|   -5.061626|
|         174|   -5.340242|   -4.427957|   -3.888730|   -5.062137|
|         175|   -5.340380|   -4.427817|   -3.888796|   -5.062647|
|         176|   -5.340506|   -4.427649|   -3.888843|   -5.063175|
|         177|   -5.340631|   -4.427454|   -3.888872|   -5.063697|
|         178|   -5.340757|   -4.427234|   -3.888884|   -5.064213|
|         179|   -5.340885|   -4.426990|   -3.888880|   -5.064726|
|         180|   -5.341014|   -4.426724|   -3.888862|   -5.065234|
|         181|   -5.341146|   -4.426438|   -3.888830|   -5.065739|
|         182|   -5.341281|   -4.426133|   -3.888786|   -5.066241|
|         183|   -5.341419|   -4.425813|   -3.888733|   -5.066740|
|         184|   -5.341561|   -4.425480|   -3.888672|   -5.067238|
|         185|   -5.341707|   -4.425138|   -3.888605|   -5.067734|
|         186|   -5.341857|   -4.424791|   -3.888532|   -5.068228|
|         187|   -5.342012|   -4.424440|   -3.888457|   -5.068721|
|         188|   -5.342173|   -4.424089|   -3.888380|   -5.069213|
|         189|   -5.342339|   -4.423741|   -3.888302|   -5.069704|
|         190|   -5.342510|   -4.423397|   -3.888225|   -5.070195|
|         191|   -5.342686|   -4.423059|   -3.888150|   -5.070689|
|         192|   -5.342861|   -4.422731|   -3.888075|   -5.071194|
|         193|   -5.343043|   -4.422414|   -3.888002|   -5.071696|
|         194|   -5.343231|   -4.422111|   -3.887932|   -5.072192|
|         195|   -5.343426|   -4.421823|   -3.887866|   -5.072684|
|         196|   -5.343628|   -4.421553|   -3.887807|   -5.073172|
|         197|   -5.343834|   -4.421300|   -3.887755|   -5.073655|
|         198|   -5.344045|   -4.421063|   -3.887711|   -5.074135|
|         199|   -5.344259|   -4.420844|   -3.887674|   -5.074610|
|         200|   -5.344477|   -4.420641|   -3.887646|   -5.075081|
|         201|   -5.344695|   -4.420454|   -3.887627|   -5.075550|
|         202|   -5.344915|   -4.420279|   -3.887615|   -5.076015|
|         203|   -5.345136|   -4.420116|   -3.887611|   -5.076476|
|         204|   -5.345357|   -4.419963|   -3.887616|   -5.076932|
|         205|   -5.345578|   -4.419816|   -3.887628|   -5.077384|
|         206|   -5.345798|   -4.419676|   -3.887646|   -5.077831|
|         207|   -5.346016|   -4.419540|   -3.887670|   -5.078276|
|         208|   -5.346227|   -4.419406|   -3.887697|   -5.078726|
|         209|   -5.346436|   -4.419270|   -3.887726|   -5.079170|
|         210|   -5.346642|   -4.419132|   -3.887758|   -5.079610|
|         211|   -5.346846|   -4.418988|   -3.887791|   -5.080044|
|         212|   -5.347047|   -4.418836|   -3.887826|   -5.080471|
|         213|   -5.347245|   -4.418674|   -3.887864|   -5.080895|
|         214|   -5.347438|   -4.418502|   -3.887902|   -5.081313|
|         215|   -5.347626|   -4.418319|   -3.887942|   -5.081725|
|         216|   -5.347810|   -4.418124|   -3.887984|   -5.082132|
|         217|   -5.347987|   -4.417918|   -3.888026|   -5.082533|
|         218|   -5.348158|   -4.417701|   -3.888072|   -5.082928|
|         219|   -5.348323|   -4.417471|   -3.888123|   -5.083319|
|         220|   -5.348487|   -4.417226|   -3.888178|   -5.083708|
|         221|   -5.348652|   -4.416966|   -3.888234|   -5.084094|
|         222|   -5.348819|   -4.416689|   -3.888288|   -5.084478|
|         223|   -5.348991|   -4.416397|   -3.888340|   -5.084862|
|         224|   -5.349165|   -4.416089|   -3.888385|   -5.085253|
|         225|   -5.349345|   -4.415767|   -3.888424|   -5.085642|
|         226|   -5.349531|   -4.415432|   -3.888455|   -5.086029|
|         227|   -5.349723|   -4.415085|   -3.888481|   -5.086414|
|         228|   -5.349922|   -4.414726|   -3.888502|   -5.086799|
|         229|   -5.350128|   -4.414356|   -3.888516|   -5.087183|
|         230|   -5.350340|   -4.413977|   -3.888524|   -5.087568|
|         231|   -5.350558|   -4.413590|   -3.888525|   -5.087952|
|         232|   -5.350782|   -4.413196|   -3.888520|   -5.088336|
|         233|   -5.351011|   -4.412797|   -3.888508|   -5.088719|
|         234|   -5.351242|   -4.412394|   -3.888490|   -5.089101|
|         235|   -5.351475|   -4.411989|   -3.888467|   -5.089481|
|         236|   -5.351709|   -4.411582|   -3.888439|   -5.089861|
|         237|   -5.351943|   -4.411174|   -3.888408|   -5.090240|
|         238|   -5.352177|   -4.410765|   -3.888372|   -5.090619|
|         239|   -5.352411|   -4.410355|   -3.888332|   -5.090996|
|         240|   -5.352641|   -4.409944|   -3.888286|   -5.091376|
|         241|   -5.352868|   -4.409532|   -3.888235|   -5.091756|
|         242|   -5.353093|   -4.409119|   -3.888178|   -5.092135|
|         243|   -5.353314|   -4.408705|   -3.888117|   -5.092511|
|         244|   -5.353531|   -4.408290|   -3.888050|   -5.092885|
|         245|   -5.353742|   -4.407874|   -3.887980|   -5.093256|
|         246|   -5.353948|   -4.407456|   -3.887907|   -5.093625|
|         247|   -5.354148|   -4.407035|   -3.887832|   -5.093992|
|         248|   -5.354341|   -4.406612|   -3.887755|   -5.094356|
|         249|   -5.354527|   -4.406185|   -3.887676|   -5.094719|
|         250|   -5.354708|   -4.405755|   -3.887595|   -5.095079|
|         251|   -5.354883|   -4.405319|   -3.887512|   -5.095438|
|         252|   -5.355052|   -4.404880|   -3.887427|   -5.095795|
|         253|   -5.355214|   -4.404437|   -3.887341|   -5.096150|
|         254|   -5.355371|   -4.403990|   -3.887253|   -5.096503|
|         255|   -5.355523|   -4.403538|   -3.887164|   -5.096854|
|         256|   -5.355668|   -4.403083|   -3.887073|   -5.097205|
|         257|   -5.355807|   -4.402624|   -3.886981|   -5.097556|
|         258|   -5.355940|   -4.402161|   -3.886888|   -5.097905|
|         259|   -5.356069|   -4.401696|   -3.886794|   -5.098252|
|         260|   -5.356193|   -4.401227|   -3.886699|   -5.098596|
|         261|   -5.356314|   -4.400756|   -3.886602|   -5.098939|
|         262|   -5.356432|   -4.400284|   -3.886505|   -5.099280|
|         263|   -5.356547|   -4.399810|   -3.886407|   -5.099618|
|         264|   -5.356659|   -4.399334|   -3.886309|   -5.099954|
|         265|   -5.356768|   -4.398858|   -3.886210|   -5.100288|
|         266|   -5.356874|   -4.398383|   -3.886110|   -5.100620|
|         267|   -5.356977|   -4.397908|   -3.886010|   -5.100950|
|         268|   -5.357077|   -4.397434|   -3.885909|   -5.101278|
|         269|   -5.357174|   -4.396961|   -3.885808|   -5.101602|
|         270|   -5.357268|   -4.396489|   -3.885707|   -5.101924|
|         271|   -5.357359|   -4.396020|   -3.885606|   -5.102245|
|         272|   -5.357447|   -4.395552|   -3.885506|   -5.102562|
|         273|   -5.357531|   -4.395085|   -3.885407|   -5.102880|
|         274|   -5.357613|   -4.394620|   -3.885306|   -5.103195|
|         275|   -5.357693|   -4.394154|   -3.885205|   -5.103508|
|         276|   -5.357772|   -4.393690|   -3.885103|   -5.103817|
|         277|   -5.357850|   -4.393226|   -3.884999|   -5.104123|
|         278|   -5.357927|   -4.392762|   -3.884894|   -5.104426|
|         279|   -5.358003|   -4.392297|   -3.884787|   -5.104726|
|         280|   -5.358078|   -4.391831|   -3.884679|   -5.105023|
|         281|   -5.358152|   -4.391364|   -3.884569|   -5.105317|
|         282|   -5.358225|   -4.390896|   -3.884458|   -5.105608|
|         283|   -5.358296|   -4.390427|   -3.884346|   -5.105895|
|         284|   -5.358366|   -4.389954|   -3.884233|   -5.106179|
|         285|   -5.358434|   -4.389480|   -3.884119|   -5.106459|
|         286|   -5.358501|   -4.389002|   -3.884004|   -5.106737|
|         287|   -5.358567|   -4.388521|   -3.883887|   -5.107011|
|         288|   -5.358631|   -4.388037|   -3.883770|   -5.107283|
|         289|   -5.358693|   -4.387549|   -3.883651|   -5.107553|
|         290|   -5.358753|   -4.387056|   -3.883531|   -5.107821|
|         291|   -5.358811|   -4.386560|   -3.883409|   -5.108086|
|         292|   -5.358867|   -4.386060|   -3.883286|   -5.108348|
|         293|   -5.358922|   -4.385556|   -3.883161|   -5.108605|
|         294|   -5.358974|   -4.385047|   -3.883036|   -5.108860|
|         295|   -5.359025|   -4.384534|   -3.882911|   -5.109111|
|         296|   -5.359074|   -4.384018|   -3.882786|   -5.109358|
|         297|   -5.359122|   -4.383497|   -3.882661|   -5.109603|
|         298|   -5.359168|   -4.382973|   -3.882536|   -5.109845|
|         299|   -5.359212|   -4.382445|   -3.882411|   -5.110084|
|         300|   -5.359255|   -4.381914|   -3.882286|   -5.110321|
|         301|   -5.359296|   -4.381380|   -3.882162|   -5.110554|
|         302|   -5.359336|   -4.380844|   -3.882039|   -5.110785|
|         303|   -5.359374|   -4.380307|   -3.881917|   -5.111013|
|         304|   -5.359411|   -4.379768|   -3.881798|   -5.111238|
|         305|   -5.359446|   -4.379228|   -3.881680|   -5.111462|
|         306|   -5.359480|   -4.378688|   -3.881564|   -5.111685|
|         307|   -5.359514|   -4.378148|   -3.881450|   -5.111907|
|         308|   -5.359547|   -4.377608|   -3.881338|   -5.112126|
|         309|   -5.359579|   -4.377069|   -3.881228|   -5.112343|
|         310|   -5.359612|   -4.376532|   -3.881122|   -5.112559|
|         311|   -5.359644|   -4.375997|   -3.881018|   -5.112772|
|         312|   -5.359677|   -4.375465|   -3.880919|   -5.112984|
|         313|   -5.359710|   -4.374936|   -3.880826|   -5.113193|
|         314|   -5.359744|   -4.374410|   -3.880738|   -5.113401|
|         315|   -5.359780|   -4.373887|   -3.880656|   -5.113608|
|         316|   -5.359816|   -4.373368|   -3.880582|   -5.113813|
|         317|   -5.359854|   -4.372854|   -3.880517|   -5.114017|
|         318|   -5.359894|   -4.372343|   -3.880462|   -5.114220|
|         319|   -5.359935|   -4.371837|   -3.880417|   -5.114420|
|         320|   -5.359976|   -4.371336|   -3.880386|   -5.114619|
|         321|   -5.360019|   -4.370841|   -3.880371|   -5.114815|
|         322|   -5.360062|   -4.370350|   -3.880373|   -5.115010|
|         323|   -5.360103|   -4.369864|   -3.880395|   -5.115203|
|         324|   -5.360143|   -4.369383|   -3.880438|   -5.115393|
|         325|   -5.360181|   -4.368907|   -3.880505|   -5.115579|
|         326|   -5.360213|   -4.368436|   -3.880600|   -5.115761|
|         327|   -5.360237|   -4.367970|   -3.880726|   -5.115937|
|         328|   -5.360253|   -4.367509|   -3.880887|   -5.116107|
|         329|   -5.360254|   -4.367053|   -3.881088|   -5.116269|
|         330|   -5.360240|   -4.366602|   -3.881331|   -5.116422|
|         331|   -5.360207|   -4.366156|   -3.881621|   -5.116564|
|         332|   -5.360149|   -4.365714|   -3.881964|   -5.116694|
|         333|   -5.360062|   -4.365276|   -3.882365|   -5.116809|
|         334|   -5.359941|   -4.364843|   -3.882828|   -5.116908|
|         335|   -5.359782|   -4.364415|   -3.883360|   -5.116990|
|         336|   -5.359578|   -4.363990|   -3.883965|   -5.117052|
|         337|   -5.359326|   -4.363570|   -3.884649|   -5.117093|
|         338|   -5.359018|   -4.363153|   -3.885417|   -5.117111|
|         339|   -5.358650|   -4.362739|   -3.886275|   -5.117104|
|         340|   -5.358216|   -4.362329|   -3.887228|   -5.117070|
|         341|   -5.357712|   -4.361922|   -3.888282|   -5.117009|
|         342|   -5.357134|   -4.361518|   -3.889441|   -5.116919|
|         343|   -5.356479|   -4.361116|   -3.890710|   -5.116799|
|         344|   -5.355743|   -4.360715|   -3.892093|   -5.116648|
|         345|   -5.354924|   -4.360316|   -3.893594|   -5.116465|
|         346|   -5.354023|   -4.359919|   -3.895214|   -5.116252|
|         347|   -5.353038|   -4.359521|   -3.896958|   -5.116010|
|         348|   -5.351972|   -4.359123|   -3.898827|   -5.115738|
|         349|   -5.350827|   -4.358724|   -3.900822|   -5.115439|
|         350|   -5.349608|   -4.358324|   -3.902942|   -5.115113|
|         351|   -5.348320|   -4.357921|   -3.905187|   -5.114764|
|         352|   -5.346969|   -4.357514|   -3.907553|   -5.114395|
|         353|   -5.345562|   -4.357102|   -3.910038|   -5.114008|
|         354|   -5.344107|   -4.356685|   -3.912638|   -5.113606|
|         355|   -5.342615|   -4.356261|   -3.915348|   -5.113194|
|         356|   -5.341094|   -4.355829|   -3.918161|   -5.112776|
|         357|   -5.339556|   -4.355386|   -3.921070|   -5.112356|
|         358|   -5.338012|   -4.354932|   -3.924066|   -5.111937|
|         359|   -5.336471|   -4.354464|   -3.927139|   -5.111525|
|         360|   -5.334946|   -4.353982|   -3.930279|   -5.111123|
|         361|   -5.333445|   -4.353482|   -3.933473|   -5.110735|
|         362|   -5.331980|   -4.352965|   -3.936709|   -5.110365|
|         363|   -5.330559|   -4.352426|   -3.939974|   -5.110018|
|         364|   -5.329190|   -4.351866|   -3.943255|   -5.109695|
|         365|   -5.327882|   -4.351283|   -3.946537|   -5.109400|
|         366|   -5.326641|   -4.350674|   -3.949807|   -5.109136|
|         367|   -5.325471|   -4.350038|   -3.953049|   -5.108906|
|         368|   -5.324379|   -4.349373|   -3.956253|   -5.108709|
|         369|   -5.323365|   -4.348678|   -3.959406|   -5.108548|
|         370|   -5.322433|   -4.347953|   -3.962494|   -5.108423|
|         371|   -5.321583|   -4.347195|   -3.965508|   -5.108336|
|         372|   -5.320814|   -4.346403|   -3.968438|   -5.108285|
|         373|   -5.320126|   -4.345577|   -3.971276|   -5.108270|
|         374|   -5.319514|   -4.344716|   -3.974014|   -5.108289|
|         375|   -5.318977|   -4.343819|   -3.976648|   -5.108340|
|         376|   -5.318510|   -4.342886|   -3.979174|   -5.108422|
|         377|   -5.318106|   -4.341916|   -3.981591|   -5.108533|
|         378|   -5.317762|   -4.340910|   -3.983899|   -5.108670|
|         379|   -5.317470|   -4.339867|   -3.986099|   -5.108830|
|         380|   -5.317225|   -4.338787|   -3.988195|   -5.109012|
|         381|   -5.317018|   -4.337672|   -3.990191|   -5.109211|
|         382|   -5.316845|   -4.336521|   -3.992095|   -5.109425|
|         383|   -5.316698|   -4.335335|   -3.993911|   -5.109652|
|         384|   -5.316571|   -4.334115|   -3.995649|   -5.109889|
|         385|   -5.316458|   -4.332861|   -3.997315|   -5.110133|
|         386|   -5.316353|   -4.331576|   -3.998919|   -5.110383|
|         387|   -5.316250|   -4.330261|   -4.000469|   -5.110635|
|         388|   -5.316144|   -4.328916|   -4.001974|   -5.110888|
|         389|   -5.316031|   -4.327544|   -4.003444|   -5.111140|
|         390|   -5.315906|   -4.326147|   -4.004888|   -5.111390|
|         391|   -5.315766|   -4.324727|   -4.006315|   -5.111636|
|         392|   -5.315607|   -4.323286|   -4.007733|   -5.111877|
|         393|   -5.315426|   -4.321827|   -4.009151|   -5.112111|
|         394|   -5.315223|   -4.320353|   -4.010579|   -5.112338|
|         395|   -5.314994|   -4.318865|   -4.012024|   -5.112556|
|         396|   -5.314740|   -4.317367|   -4.013499|   -5.112765|
|         397|   -5.314461|   -4.315860|   -4.015011|   -5.112964|
|         398|   -5.314157|   -4.314347|   -4.016565|   -5.113154|
|         399|   -5.313827|   -4.312831|   -4.018168|   -5.113333|
|         400|   -5.313473|   -4.311315|   -4.019826|   -5.113503|
|         401|   -5.313095|   -4.309800|   -4.021544|   -5.113663|
|         402|   -5.312693|   -4.308291|   -4.023326|   -5.113813|
|         403|   -5.312268|   -4.306787|   -4.025177|   -5.113954|
|         404|   -5.311819|   -4.305293|   -4.027100|   -5.114088|
|         405|   -5.311347|   -4.303811|   -4.029099|   -5.114214|
|         406|   -5.310851|   -4.302341|   -4.031176|   -5.114334|
|         407|   -5.310331|   -4.300887|   -4.033334|   -5.114454|
|         408|   -5.309790|   -4.299448|   -4.035574|   -5.114569|
|         409|   -5.309234|   -4.298027|   -4.037892|   -5.114678|
|         410|   -5.308664|   -4.296625|   -4.040287|   -5.114782|
|         411|   -5.308084|   -4.295243|   -4.042756|   -5.114880|
|         412|   -5.307496|   -4.293879|   -4.045293|   -5.114975|
|         413|   -5.306902|   -4.292536|   -4.047896|   -5.115065|
|         414|   -5.306303|   -4.291211|   -4.050558|   -5.115154|
|         415|   -5.305701|   -4.289905|   -4.053276|   -5.115242|
|         416|   -5.305094|   -4.288616|   -4.056044|   -5.115335|
|         417|   -5.304476|   -4.287343|   -4.058862|   -5.115445|
|         418|   -5.303856|   -4.286084|   -4.061717|   -5.115563|
|         419|   -5.303246|   -4.284837|   -4.064595|   -5.115684|
|         420|   -5.302649|   -4.283601|   -4.067486|   -5.115808|
|         421|   -5.302066|   -4.282373|   -4.070377|   -5.115939|
|         422|   -5.301499|   -4.281151|   -4.073256|   -5.116077|
|         423|   -5.300952|   -4.279932|   -4.076111|   -5.116224|
|         424|   -5.300423|   -4.278712|   -4.078932|   -5.116382|
|         425|   -5.299911|   -4.277490|   -4.081710|   -5.116554|
|         426|   -5.299413|   -4.276260|   -4.084439|   -5.116749|
|         427|   -5.298936|   -4.275022|   -4.087104|   -5.116963|
|         428|   -5.298487|   -4.273773|   -4.089687|   -5.117190|
|         429|   -5.298067|   -4.272510|   -4.092174|   -5.117431|
|         430|   -5.297680|   -4.271229|   -4.094551|   -5.117684|
|         431|   -5.297324|   -4.269929|   -4.096807|   -5.117950|
|         432|   -5.296999|   -4.268607|   -4.098934|   -5.118231|
|         433|   -5.296703|   -4.267261|   -4.100927|   -5.118527|
|         434|   -5.296432|   -4.265889|   -4.102783|   -5.118846|
|         435|   -5.296187|   -4.264489|   -4.104498|   -5.119187|
|         436|   -5.295970|   -4.263060|   -4.106058|   -5.119544|
|         437|   -5.295784|   -4.261601|   -4.107459|   -5.119914|
|         438|   -5.295626|   -4.260111|   -4.108696|   -5.120299|
|         439|   -5.295496|   -4.258589|   -4.109770|   -5.120699|
|         440|   -5.295391|   -4.257033|   -4.110680|   -5.121113|
|         441|   -5.295309|   -4.255444|   -4.111430|   -5.121541|
|         442|   -5.295251|   -4.253820|   -4.112025|   -5.121986|
|         443|   -5.295217|   -4.252162|   -4.112462|   -5.122441|
|         444|   -5.295204|   -4.250470|   -4.112743|   -5.122906|
|         445|   -5.295211|   -4.248745|   -4.112873|   -5.123379|
|         446|   -5.295232|   -4.246987|   -4.112860|   -5.123862|
|         447|   -5.295265|   -4.245197|   -4.112714|   -5.124359|
|         448|   -5.295307|   -4.243375|   -4.112443|   -5.124866|
|         449|   -5.295363|   -4.241522|   -4.112057|   -5.125382|
|         450|   -5.295432|   -4.239639|   -4.111558|   -5.125905|
|         451|   -5.295510|   -4.237729|   -4.110952|   -5.126432|
|         452|   -5.295594|   -4.235792|   -4.110247|   -5.126962|
|         453|   -5.295680|   -4.233831|   -4.109452|   -5.127497|
|         454|   -5.295765|   -4.231847|   -4.108576|   -5.128036|
|         455|   -5.295849|   -4.229842|   -4.107629|   -5.128577|
|         456|   -5.295934|   -4.227820|   -4.106618|   -5.129121|
|         457|   -5.296018|   -4.225781|   -4.105551|   -5.129666|
|         458|   -5.296093|   -4.223728|   -4.104431|   -5.130210|
|         459|   -5.296158|   -4.221665|   -4.103270|   -5.130753|
|         460|   -5.296211|   -4.219593|   -4.102073|   -5.131293|
|         461|   -5.296248|   -4.217515|   -4.100849|   -5.131830|
|         462|   -5.296273|   -4.215434|   -4.099602|   -5.132361|
|         463|   -5.296283|   -4.213353|   -4.098339|   -5.132884|
|         464|   -5.296272|   -4.211274|   -4.097063|   -5.133399|
|         465|   -5.296235|   -4.209201|   -4.095782|   -5.133908|
|         466|   -5.296171|   -4.207136|   -4.094503|   -5.134409|
|         467|   -5.296075|   -4.205081|   -4.093232|   -5.134900|
|         468|   -5.295951|   -4.203039|   -4.091973|   -5.135376|
|         469|   -5.295797|   -4.201012|   -4.090728|   -5.135837|
|         470|   -5.295607|   -4.199002|   -4.089500|   -5.136283|
|         471|   -5.295376|   -4.197011|   -4.088294|   -5.136712|
|         472|   -5.295100|   -4.195042|   -4.087114|   -5.137122|
|         473|   -5.294781|   -4.193096|   -4.085968|   -5.137514|
|         474|   -5.294421|   -4.191176|   -4.084855|   -5.137883|
|         475|   -5.294014|   -4.189281|   -4.083778|   -5.138229|
|         476|   -5.293554|   -4.187413|   -4.082739|   -5.138551|
|         477|   -5.293037|   -4.185572|   -4.081742|   -5.138851|
|         478|   -5.292468|   -4.183763|   -4.080805|   -5.139127|
|         479|   -5.291861|   -4.181987|   -4.079949|   -5.139385|
|         480|   -5.291228|   -4.180244|   -4.079163|   -5.139625|
|         481|   -5.290571|   -4.178532|   -4.078436|   -5.139854|
|         482|   -5.289896|   -4.176848|   -4.077762|   -5.140073|
|         483|   -5.289211|   -4.175191|   -4.077131|   -5.140283|
|         484|   -5.288520|   -4.173561|   -4.076534|   -5.140488|
|         485|   -5.287833|   -4.171955|   -4.075964|   -5.140686|
|         486|   -5.287145|   -4.170374|   -4.075414|   -5.140881|
|         487|   -5.286460|   -4.168815|   -4.074881|   -5.141072|
|         488|   -5.285780|   -4.167280|   -4.074361|   -5.141260|
|         489|   -5.285102|   -4.165766|   -4.073855|   -5.141445|
|         490|   -5.284430|   -4.164277|   -4.073364|   -5.141625|
|         491|   -5.283761|   -4.162812|   -4.072893|   -5.141803|
|         492|   -5.283096|   -4.161371|   -4.072440|   -5.141977|
|         493|   -5.282433|   -4.159954|   -4.072005|   -5.142146|
|         494|   -5.281776|   -4.158562|   -4.071585|   -5.142309|
|         495|   -5.281123|   -4.157194|   -4.071182|   -5.142465|
|         496|   -5.280468|   -4.155851|   -4.070797|   -5.142617|
|         497|   -5.279810|   -4.154532|   -4.070433|   -5.142763|
|         498|   -5.279146|   -4.153239|   -4.070089|   -5.142903|
|         499|   -5.278478|   -4.151972|   -4.069767|   -5.143033|
|         500|   -5.277806|   -4.150731|   -4.069468|   -5.143151|
|         501|   -5.277126|   -4.149518|   -4.069192|   -5.143258|
|         502|   -5.276435|   -4.148333|   -4.068946|   -5.143358|
|         503|   -5.275735|   -4.147176|   -4.068733|   -5.143450|
|         504|   -5.275026|   -4.146047|   -4.068551|   -5.143533|
|         505|   -5.274310|   -4.144946|   -4.068401|   -5.143610|
|         506|   -5.273589|   -4.143874|   -4.068279|   -5.143677|
|         507|   -5.272862|   -4.142829|   -4.068184|   -5.143735|
|         508|   -5.272128|   -4.141813|   -4.068116|   -5.143787|
|         509|   -5.271390|   -4.140824|   -4.068074|   -5.143836|
|         510|   -5.270649|   -4.139861|   -4.068056|   -5.143880|
|         511|   -5.269907|   -4.138924|   -4.068061|   -5.143920|
|         512|   -5.269163|   -4.138013|   -4.068087|   -5.143958|
|         513|   -5.268418|   -4.137126|   -4.068132|   -5.143993|
|         514|   -5.267674|   -4.136264|   -4.068194|   -5.144026|
|         515|   -5.266932|   -4.135425|   -4.068274|   -5.144059|
|         516|   -5.266193|   -4.134609|   -4.068367|   -5.144093|
|         517|   -5.265461|   -4.133815|   -4.068473|   -5.144126|
|         518|   -5.264733|   -4.133040|   -4.068590|   -5.144164|
|         519|   -5.264009|   -4.132285|   -4.068717|   -5.144206|
|         520|   -5.263291|   -4.131549|   -4.068852|   -5.144251|
|         521|   -5.262581|   -4.130831|   -4.068993|   -5.144301|
|         522|   -5.261880|   -4.130130|   -4.069141|   -5.144357|
|         523|   -5.261193|   -4.129445|   -4.069294|   -5.144417|
|         524|   -5.260519|   -4.128775|   -4.069449|   -5.144484|
|         525|   -5.259856|   -4.128118|   -4.069604|   -5.144561|
|         526|   -5.259204|   -4.127472|   -4.069758|   -5.144647|
|         527|   -5.258564|   -4.126838|   -4.069909|   -5.144741|
|         528|   -5.257939|   -4.126213|   -4.070055|   -5.144845|
|         529|   -5.257330|   -4.125598|   -4.070195|   -5.144955|
|         530|   -5.256736|   -4.124990|   -4.070328|   -5.145073|
|         531|   -5.256155|   -4.124390|   -4.070455|   -5.145198|
|         532|   -5.255585|   -4.123796|   -4.070578|   -5.145332|
|         533|   -5.255024|   -4.123207|   -4.070695|   -5.145474|
|         534|   -5.254473|   -4.122622|   -4.070810|   -5.145624|
|         535|   -5.253933|   -4.122042|   -4.070926|   -5.145781|
|         536|   -5.253406|   -4.121466|   -4.071042|   -5.145943|
|         537|   -5.252889|   -4.120892|   -4.071158|   -5.146112|
|         538|   -5.252383|   -4.120320|   -4.071273|   -5.146288|
|         539|   -5.251887|   -4.119748|   -4.071388|   -5.146469|
|         540|   -5.251401|   -4.119176|   -4.071502|   -5.146656|
|         541|   -5.250924|   -4.118604|   -4.071617|   -5.146849|
|         542|   -5.250456|   -4.118030|   -4.071732|   -5.147047|
|         543|   -5.249997|   -4.117453|   -4.071849|   -5.147249|
|         544|   -5.249546|   -4.116875|   -4.071970|   -5.147455|
|         545|   -5.249103|   -4.116293|   -4.072095|   -5.147664|
|         546|   -5.248667|   -4.115708|   -4.072225|   -5.147875|
|         547|   -5.248235|   -4.115119|   -4.072363|   -5.148089|
|         548|   -5.247805|   -4.114524|   -4.072509|   -5.148307|
|         549|   -5.247380|   -4.113924|   -4.072665|   -5.148526|
|         550|   -5.246960|   -4.113319|   -4.072831|   -5.148746|
|         551|   -5.246543|   -4.112709|   -4.073007|   -5.148967|
|         552|   -5.246128|   -4.112091|   -4.073192|   -5.149189|
|         553|   -5.245713|   -4.111466|   -4.073387|   -5.149415|
|         554|   -5.245297|   -4.110833|   -4.073590|   -5.149642|
|         555|   -5.244884|   -4.110192|   -4.073800|   -5.149871|
|         556|   -5.244474|   -4.109543|   -4.074015|   -5.150101|
|         557|   -5.244066|   -4.108885|   -4.074231|   -5.150333|
|         558|   -5.243661|   -4.108217|   -4.074447|   -5.150567|
|         559|   -5.243260|   -4.107539|   -4.074660|   -5.150806|
|         560|   -5.242865|   -4.106852|   -4.074869|   -5.151049|
|         561|   -5.242476|   -4.106154|   -4.075071|   -5.151297|
|         562|   -5.242098|   -4.105445|   -4.075262|   -5.151551|
|         563|   -5.241730|   -4.104726|   -4.075443|   -5.151811|
|         564|   -5.241376|   -4.103996|   -4.075609|   -5.152080|
|         565|   -5.241038|   -4.103257|   -4.075757|   -5.152356|
|         566|   -5.240719|   -4.102506|   -4.075885|   -5.152640|
|         567|   -5.240420|   -4.101745|   -4.075991|   -5.152935|
|         568|   -5.240143|   -4.100975|   -4.076071|   -5.153239|
|         569|   -5.239888|   -4.100194|   -4.076126|   -5.153554|
|         570|   -5.239657|   -4.099405|   -4.076154|   -5.153878|
|         571|   -5.239451|   -4.098607|   -4.076153|   -5.154212|
|         572|   -5.239270|   -4.097801|   -4.076123|   -5.154556|
|         573|   -5.239115|   -4.096988|   -4.076065|   -5.154907|
|         574|   -5.238985|   -4.096168|   -4.075979|   -5.155266|
|         575|   -5.238878|   -4.095343|   -4.075866|   -5.155631|
|         576|   -5.238795|   -4.094514|   -4.075726|   -5.156002|
|         577|   -5.238733|   -4.093680|   -4.075559|   -5.156376|
|         578|   -5.238692|   -4.092845|   -4.075368|   -5.156753|
|         579|   -5.238668|   -4.092007|   -4.075154|   -5.157132|
|         580|   -5.238658|   -4.091169|   -4.074916|   -5.157511|
|         581|   -5.238661|   -4.090331|   -4.074657|   -5.157893|
|         582|   -5.238672|   -4.089493|   -4.074378|   -5.158275|
|         583|   -5.238691|   -4.088657|   -4.074079|   -5.158659|
|         584|   -5.238715|   -4.087824|   -4.073764|   -5.159047|
|         585|   -5.238740|   -4.086993|   -4.073432|   -5.159441|
|         586|   -5.238765|   -4.086166|   -4.073088|   -5.159847|
|         587|   -5.238789|   -4.085344|   -4.072735|   -5.160272|
|         588|   -5.238813|   -4.084527|   -4.072369|   -5.160723|
|         589|   -5.238837|   -4.083715|   -4.071988|   -5.161208|
|         590|   -5.238861|   -4.082907|   -4.071587|   -5.161737|
|         591|   -5.238884|   -4.082104|   -4.071165|   -5.162322|
|         592|   -5.238908|   -4.081308|   -4.070720|   -5.162975|
|         593|   -5.238932|   -4.080517|   -4.070249|   -5.163707|
|         594|   -5.238955|   -4.079733|   -4.069748|   -5.164533|
|         595|   -5.238978|   -4.078957|   -4.069214|   -5.165463|
|         596|   -5.239000|   -4.078188|   -4.068646|   -5.166511|
|         597|   -5.239024|   -4.077430|   -4.068040|   -5.167688|
|         598|   -5.239048|   -4.076681|   -4.067394|   -5.169002|
|         599|   -5.239073|   -4.075943|   -4.066705|   -5.170463|
|         600|   -5.239101|   -4.075217|   -4.065971|   -5.172075|
|         601|   -5.239130|   -4.074505|   -4.065189|   -5.173844|
|         602|   -5.239163|   -4.073806|   -4.064356|   -5.175769|
|         603|   -5.239200|   -4.073122|   -4.063469|   -5.177846|
|         604|   -5.239240|   -4.072452|   -4.062528|   -5.180072|
|         605|   -5.239284|   -4.071798|   -4.061531|   -5.182438|
|         606|   -5.239334|   -4.071160|   -4.060477|   -5.184930|
|         607|   -5.239389|   -4.070538|   -4.059370|   -5.187533|
|         608|   -5.239449|   -4.069932|   -4.058210|   -5.190229|
|         609|   -5.239515|   -4.069342|   -4.057004|   -5.193000|
|         610|   -5.239585|   -4.068769|   -4.055759|   -5.195826|
|         611|   -5.239659|   -4.068212|   -4.054485|   -5.198686|
|         612|   -5.239738|   -4.067671|   -4.053192|   -5.201558|
|         613|   -5.239820|   -4.067144|   -4.051896|   -5.204421|
|         614|   -5.239905|   -4.066633|   -4.050609|   -5.207259|
|         615|   -5.239994|   -4.066135|   -4.049349|   -5.210053|
|         616|   -5.240084|   -4.065651|   -4.048130|   -5.212791|
|         617|   -5.240175|   -4.065178|   -4.046966|   -5.215462|
|         618|   -5.240266|   -4.064716|   -4.045871|   -5.218060|
|         619|   -5.240357|   -4.064263|   -4.044855|   -5.220578|
|         620|   -5.240446|   -4.063818|   -4.043927|   -5.223015|
|         621|   -5.240533|   -4.063379|   -4.043090|   -5.225371|
|         622|   -5.240618|   -4.062945|   -4.042347|   -5.227649|
|         623|   -5.240699|   -4.062515|   -4.041698|   -5.229852|
|         624|   -5.240778|   -4.062088|   -4.041142|   -5.231987|
|         625|   -5.240853|   -4.061665|   -4.040672|   -5.234059|
|         626|   -5.240925|   -4.061245|   -4.040284|   -5.236074|
|         627|   -5.240994|   -4.060828|   -4.039971|   -5.238038|
|         628|   -5.241061|   -4.060414|   -4.039725|   -5.239959|
|         629|   -5.241126|   -4.060005|   -4.039539|   -5.241841|
|         630|   -5.241190|   -4.059599|   -4.039405|   -5.243690|
|         631|   -5.241254|   -4.059199|   -4.039316|   -5.245510|
|         632|   -5.241320|   -4.058804|   -4.039266|   -5.247306|
|         633|   -5.241389|   -4.058417|   -4.039249|   -5.249080|
|         634|   -5.241461|   -4.058036|   -4.039262|   -5.250836|
|         635|   -5.241541|   -4.057664|   -4.039302|   -5.252576|
|         636|   -5.241632|   -4.057301|   -4.039365|   -5.254305|
|         637|   -5.241738|   -4.056946|   -4.039443|   -5.256026|
|         638|   -5.241863|   -4.056599|   -4.039529|   -5.257740|
|         639|   -5.242008|   -4.056260|   -4.039617|   -5.259448|
|         640|   -5.242175|   -4.055927|   -4.039704|   -5.261152|
|         641|   -5.242363|   -4.055600|   -4.039787|   -5.262852|
|         642|   -5.242573|   -4.055280|   -4.039865|   -5.264550|
|         643|   -5.242802|   -4.054964|   -4.039938|   -5.266245|
|         644|   -5.243049|   -4.054652|   -4.040005|   -5.267937|
|         645|   -5.243309|   -4.054344|   -4.040068|   -5.269626|
|         646|   -5.243582|   -4.054038|   -4.040127|   -5.271312|
|         647|   -5.243865|   -4.053733|   -4.040182|   -5.272996|
|         648|   -5.244155|   -4.053429|   -4.040233|   -5.274677|
|         649|   -5.244452|   -4.053125|   -4.040280|   -5.276357|
|         650|   -5.244752|   -4.052821|   -4.040321|   -5.278035|
|         651|   -5.245056|   -4.052517|   -4.040356|   -5.279713|
|         652|   -5.245362|   -4.052214|   -4.040386|   -5.281393|
|         653|   -5.245670|   -4.051911|   -4.040408|   -5.283075|
|         654|   -5.245981|   -4.051610|   -4.040421|   -5.284762|
|         655|   -5.246294|   -4.051311|   -4.040424|   -5.286453|
|         656|   -5.246610|   -4.051016|   -4.040419|   -5.288149|
|         657|   -5.246928|   -4.050725|   -4.040404|   -5.289851|
|         658|   -5.247250|   -4.050438|   -4.040381|   -5.291558|
|         659|   -5.247573|   -4.050156|   -4.040349|   -5.293271|
|         660|   -5.247898|   -4.049879|   -4.040309|   -5.294990|
|         661|   -5.248226|   -4.049607|   -4.040260|   -5.296713|
|         662|   -5.248556|   -4.049340|   -4.040202|   -5.298440|
|         663|   -5.248888|   -4.049078|   -4.040136|   -5.300171|
|         664|   -5.249223|   -4.048822|   -4.040062|   -5.301906|
|         665|   -5.249562|   -4.048570|   -4.039982|   -5.303643|
|         666|   -5.249906|   -4.048324|   -4.039895|   -5.305383|
|         667|   -5.250255|   -4.048085|   -4.039803|   -5.307125|
|         668|   -5.250610|   -4.047851|   -4.039709|   -5.308868|
|         669|   -5.250971|   -4.047625|   -4.039614|   -5.310614|
|         670|   -5.251338|   -4.047407|   -4.039517|   -5.312361|
|         671|   -5.251709|   -4.047198|   -4.039422|   -5.314110|
|         672|   -5.252081|   -4.046997|   -4.039329|   -5.315861|
|         673|   -5.252458|   -4.046808|   -4.039244|   -5.317615|
|         674|   -5.252842|   -4.046628|   -4.039159|   -5.319374|
|         675|   -5.253234|   -4.046455|   -4.039063|   -5.321140|
|         676|   -5.253637|   -4.046287|   -4.038945|   -5.322914|
|         677|   -5.254050|   -4.046123|   -4.038799|   -5.324695|
|         678|   -5.254474|   -4.045960|   -4.038618|   -5.326486|
|         679|   -5.254910|   -4.045799|   -4.038400|   -5.328286|
|         680|   -5.255358|   -4.045641|   -4.038144|   -5.330097|
|         681|   -5.255817|   -4.045485|   -4.037850|   -5.331920|
|         682|   -5.256288|   -4.045331|   -4.037523|   -5.333755|
|         683|   -5.256770|   -4.045181|   -4.037169|   -5.335603|
|         684|   -5.257264|   -4.045033|   -4.036792|   -5.337466|
|         685|   -5.257769|   -4.044891|   -4.036400|   -5.339343|
|         686|   -5.258288|   -4.044754|   -4.035996|   -5.341236|
|         687|   -5.258822|   -4.044624|   -4.035586|   -5.343145|
|         688|   -5.259371|   -4.044501|   -4.035170|   -5.345071|
|         689|   -5.259936|   -4.044389|   -4.034753|   -5.347013|
|         690|   -5.260519|   -4.044286|   -4.034336|   -5.348973|
|         691|   -5.261120|   -4.044194|   -4.033922|   -5.350948|
|         692|   -5.261739|   -4.044113|   -4.033512|   -5.352940|
|         693|   -5.262378|   -4.044042|   -4.033111|   -5.354946|
|         694|   -5.263037|   -4.043981|   -4.032721|   -5.356967|
|         695|   -5.263714|   -4.043929|   -4.032345|   -5.358999|
|         696|   -5.264409|   -4.043884|   -4.031986|   -5.361041|
|         697|   -5.265121|   -4.043846|   -4.031649|   -5.363092|
|         698|   -5.265846|   -4.043812|   -4.031337|   -5.365149|
|         699|   -5.266582|   -4.043780|   -4.031051|   -5.367212|
|         700|   -5.267327|   -4.043747|   -4.030795|   -5.369278|
|         701|   -5.268077|   -4.043711|   -4.030565|   -5.371346|
|         702|   -5.268830|   -4.043671|   -4.030357|   -5.373415|
|         703|   -5.269584|   -4.043624|   -4.030168|   -5.375483|
|         704|   -5.270337|   -4.043568|   -4.029996|   -5.377551|
|         705|   -5.271088|   -4.043504|   -4.029835|   -5.379619|
|         706|   -5.271837|   -4.043432|   -4.029684|   -5.381688|
|         707|   -5.272582|   -4.043352|   -4.029539|   -5.383757|
|         708|   -5.273325|   -4.043263|   -4.029399|   -5.385827|
|         709|   -5.274065|   -4.043167|   -4.029263|   -5.387897|
|         710|   -5.274803|   -4.043063|   -4.029130|   -5.389967|
|         711|   -5.275540|   -4.042954|   -4.029000|   -5.392037|
|         712|   -5.276277|   -4.042839|   -4.028870|   -5.394106|
|         713|   -5.277015|   -4.042720|   -4.028739|   -5.396172|
|         714|   -5.277754|   -4.042597|   -4.028608|   -5.398236|
|         715|   -5.278497|   -4.042473|   -4.028477|   -5.400294|
|         716|   -5.279242|   -4.042349|   -4.028347|   -5.402347|
|         717|   -5.279991|   -4.042227|   -4.028220|   -5.404394|
|         718|   -5.280743|   -4.042110|   -4.028098|   -5.406435|
|         719|   -5.281500|   -4.041999|   -4.027983|   -5.408469|
|         720|   -5.282264|   -4.041898|   -4.027876|   -5.410500|
|         721|   -5.283035|   -4.041807|   -4.027778|   -5.412531|
|         722|   -5.283816|   -4.041729|   -4.027690|   -5.414563|
|         723|   -5.284606|   -4.041664|   -4.027612|   -5.416601|
|         724|   -5.285406|   -4.041615|   -4.027547|   -5.418649|
|         725|   -5.286217|   -4.041583|   -4.027495|   -5.420711|
|         726|   -5.287037|   -4.041567|   -4.027458|   -5.422791|
|         727|   -5.287867|   -4.041567|   -4.027435|   -5.424891|
|         728|   -5.288706|   -4.041584|   -4.027428|   -5.427017|
|         729|   -5.289552|   -4.041616|   -4.027433|   -5.429167|
|         730|   -5.290404|   -4.041662|   -4.027449|   -5.431345|
|         731|   -5.291260|   -4.041721|   -4.027472|   -5.433550|
|         732|   -5.292117|   -4.041790|   -4.027499|   -5.435780|
|         733|   -5.292972|   -4.041869|   -4.027526|   -5.438033|
|         734|   -5.293825|   -4.041955|   -4.027548|   -5.440304|
|         735|   -5.294673|   -4.042047|   -4.027562|   -5.442590|
|         736|   -5.295516|   -4.042145|   -4.027565|   -5.444883|
|         737|   -5.296351|   -4.042251|   -4.027556|   -5.447177|
|         738|   -5.297181|   -4.042364|   -4.027535|   -5.449464|
|         739|   -5.298005|   -4.042486|   -4.027504|   -5.451736|
|         740|   -5.298824|   -4.042619|   -4.027466|   -5.453981|
|         741|   -5.299640|   -4.042764|   -4.027428|   -5.456189|
|         742|   -5.300456|   -4.042924|   -4.027393|   -5.458348|
|         743|   -5.301272|   -4.043099|   -4.027368|   -5.460452|
|         744|   -5.302092|   -4.043290|   -4.027358|   -5.462491|
|         745|   -5.302916|   -4.043497|   -4.027368|   -5.464459|
|         746|   -5.303746|   -4.043719|   -4.027400|   -5.466350|
|         747|   -5.304584|   -4.043956|   -4.027460|   -5.468157|
|         748|   -5.305428|   -4.044206|   -4.027547|   -5.469876|
|         749|   -5.306280|   -4.044468|   -4.027662|   -5.471505|
|         750|   -5.307137|   -4.044739|   -4.027803|   -5.473044|
|         751|   -5.307997|   -4.045016|   -4.027969|   -5.474493|
|         752|   -5.308856|   -4.045298|   -4.028156|   -5.475853|
|         753|   -5.309712|   -4.045583|   -4.028362|   -5.477125|
|         754|   -5.310561|   -4.045869|   -4.028584|   -5.478312|
|         755|   -5.311400|   -4.046155|   -4.028818|   -5.479419|
|         756|   -5.312227|   -4.046442|   -4.029062|   -5.480447|
|         757|   -5.313039|   -4.046730|   -4.029314|   -5.481402|
|         758|   -5.313837|   -4.047019|   -4.029573|   -5.482287|
|         759|   -5.314621|   -4.047312|   -4.029839|   -5.483104|
|         760|   -5.315394|   -4.047609|   -4.030112|   -5.483860|
|         761|   -5.316159|   -4.047916|   -4.030392|   -5.484555|
|         762|   -5.316920|   -4.048236|   -4.030680|   -5.485194|
|         763|   -5.317680|   -4.048573|   -4.030977|   -5.485779|
|         764|   -5.318443|   -4.048931|   -4.031285|   -5.486312|
|         765|   -5.319211|   -4.049313|   -4.031604|   -5.486793|
|         766|   -5.319987|   -4.049723|   -4.031934|   -5.487225|
|         767|   -5.320770|   -4.050163|   -4.032277|   -5.487608|
|         768|   -5.321563|   -4.050631|   -4.032631|   -5.487944|
|         769|   -5.322365|   -4.051130|   -4.032988|   -5.488232|
|         770|   -5.323175|   -4.051656|   -4.033346|   -5.488474|
|         771|   -5.323992|   -4.052208|   -4.033700|   -5.488670|
|         772|   -5.324812|   -4.052784|   -4.034047|   -5.488821|
|         773|   -5.325635|   -4.053381|   -4.034383|   -5.488926|
|         774|   -5.326458|   -4.053996|   -4.034706|   -5.488987|
|         775|   -5.327280|   -4.054627|   -4.035013|   -5.489003|
|         776|   -5.328101|   -4.055272|   -4.035299|   -5.488976|
|         777|   -5.328920|   -4.055928|   -4.035562|   -5.488906|
|         778|   -5.329736|   -4.056594|   -4.035803|   -5.488793|
|         779|   -5.330548|   -4.057270|   -4.036024|   -5.488638|
|         780|   -5.331354|   -4.057955|   -4.036229|   -5.488442|
|         781|   -5.332153|   -4.058649|   -4.036422|   -5.488204|
|         782|   -5.332942|   -4.059352|   -4.036612|   -5.487926|
|         783|   -5.333718|   -4.060065|   -4.036808|   -5.487608|
|         784|   -5.334476|   -4.060786|   -4.037023|   -5.487252|
|         785|   -5.335210|   -4.061517|   -4.037271|   -5.486858|
|         786|   -5.335913|   -4.062256|   -4.037571|   -5.486427|
|         787|   -5.336576|   -4.063003|   -4.037944|   -5.485960|
|         788|   -5.337189|   -4.063757|   -4.038411|   -5.485457|
|         789|   -5.337741|   -4.064516|   -4.039004|   -5.484920|
|         790|   -5.338222|   -4.065280|   -4.039745|   -5.484349|
|         791|   -5.338620|   -4.066047|   -4.040664|   -5.483745|
|         792|   -5.338923|   -4.066814|   -4.041793|   -5.483112|
|         793|   -5.339123|   -4.067581|   -4.043154|   -5.482447|
|         794|   -5.339212|   -4.068346|   -4.044771|   -5.481750|
|         795|   -5.339187|   -4.069107|   -4.046658|   -5.481021|
|         796|   -5.339048|   -4.069865|   -4.048816|   -5.480263|
|         797|   -5.338800|   -4.070618|   -4.051244|   -5.479476|
|         798|   -5.338455|   -4.071367|   -4.053920|   -5.478660|
|         799|   -5.338027|   -4.072112|   -4.056807|   -5.477816|
|         800|   -5.337535|   -4.072852|   -4.059856|   -5.476946|
|         801|   -5.337005|   -4.073589|   -4.062991|   -5.476051|
|         802|   -5.336466|   -4.074323|   -4.066133|   -5.475133|
|         803|   -5.335948|   -4.075055|   -4.069172|   -5.474191|
|         804|   -5.335484|   -4.075786|   -4.072002|   -5.473226|
|         805|   -5.335106|   -4.076514|   -4.074499|   -5.472241|
|         806|   -5.334845|   -4.077240|   -4.076550|   -5.471235|
|         807|   -5.334729|   -4.077963|   -4.078049|   -5.470211|
|         808|   -5.334781|   -4.078681|   -4.078905|   -5.469170|
|         809|   -5.335020|   -4.079394|   -4.079054|   -5.468113|
|         810|   -5.335456|   -4.080099|   -4.078467|   -5.467044|
|         811|   -5.336096|   -4.080795|   -4.077143|   -5.465962|
|         812|   -5.336940|   -4.081480|   -4.075114|   -5.464870|
|         813|   -5.337980|   -4.082153|   -4.072449|   -5.463769|
|         814|   -5.339205|   -4.082811|   -4.069228|   -5.462662|
|         815|   -5.340597|   -4.083454|   -4.065558|   -5.461550|
|         816|   -5.342135|   -4.084079|   -4.061551|   -5.460436|
|         817|   -5.343797|   -4.084687|   -4.057314|   -5.459321|
|         818|   -5.345558|   -4.085275|   -4.052953|   -5.458207|
|         819|   -5.347393|   -4.085843|   -4.048564|   -5.457096|
|         820|   -5.349278|   -4.086389|   -4.044227|   -5.455990|
|         821|   -5.351190|   -4.086913|   -4.040008|   -5.454893|
|         822|   -5.353110|   -4.087414|   -4.035957|   -5.453807|
|         823|   -5.355020|   -4.087890|   -4.032109|   -5.452733|
|         824|   -5.356907|   -4.088342|   -4.028487|   -5.451675|
|         825|   -5.358758|   -4.088767|   -4.025103|   -5.450633|
|         826|   -5.360567|   -4.089164|   -4.021959|   -5.449608|
|         827|   -5.362326|   -4.089533|   -4.019051|   -5.448603|
|         828|   -5.364034|   -4.089873|   -4.016370|   -5.447619|
|         829|   -5.365688|   -4.090183|   -4.013906|   -5.446656|
|         830|   -5.367288|   -4.090464|   -4.011645|   -5.445718|
|         831|   -5.368832|   -4.090715|   -4.009573|   -5.444801|
|         832|   -5.370320|   -4.090936|   -4.007680|   -5.443908|
|         833|   -5.371753|   -4.091130|   -4.005954|   -5.443040|
|         834|   -5.373129|   -4.091297|   -4.004387|   -5.442194|
|         835|   -5.374446|   -4.091438|   -4.002972|   -5.441367|
|         836|   -5.375703|   -4.091556|   -4.001704|   -5.440561|
|         837|   -5.376894|   -4.091653|   -4.000580|   -5.439770|
|         838|   -5.378018|   -4.091732|   -3.999599|   -5.438995|
|         839|   -5.379068|   -4.091794|   -3.998759|   -5.438231|
|         840|   -5.380041|   -4.091844|   -3.998060|   -5.437476|
|         841|   -5.380933|   -4.091882|   -3.997503|   -5.436726|
|         842|   -5.381738|   -4.091913|   -3.997087|   -5.435979|
|         843|   -5.382454|   -4.091937|   -3.996812|   -5.435231|
|         844|   -5.383079|   -4.091957|   -3.996677|   -5.434481|
|         845|   -5.383611|   -4.091975|   -3.996679|   -5.433725|
|         846|   -5.384050|   -4.091990|   -3.996816|   -5.432962|
|         847|   -5.384399|   -4.092006|   -3.997083|   -5.432189|
|         848|   -5.384658|   -4.092021|   -3.997476|   -5.431406|
|         849|   -5.384834|   -4.092037|   -3.997989|   -5.430611|
|         850|   -5.384930|   -4.092052|   -3.998615|   -5.429807|
|         851|   -5.384956|   -4.092067|   -3.999345|   -5.428991|
|         852|   -5.384918|   -4.092080|   -4.000171|   -5.428168|
|         853|   -5.384826|   -4.092091|   -4.001081|   -5.427342|
|         854|   -5.384690|   -4.092098|   -4.002067|   -5.426523|
|         855|   -5.384520|   -4.092100|   -4.003115|   -5.425711|
|         856|   -5.384325|   -4.092093|   -4.004215|   -5.424910|
|         857|   -5.384118|   -4.092077|   -4.005354|   -5.424126|
|         858|   -5.383907|   -4.092049|   -4.006519|   -5.423362|
|         859|   -5.383703|   -4.092005|   -4.007696|   -5.422626|
|         860|   -5.383514|   -4.091942|   -4.008875|   -5.421926|
|         861|   -5.383351|   -4.091857|   -4.010040|   -5.421270|
|         862|   -5.383219|   -4.091746|   -4.011181|   -5.420662|
|         863|   -5.383127|   -4.091606|   -4.012286|   -5.420109|
|         864|   -5.383081|   -4.091433|   -4.013343|   -5.419618|
|         865|   -5.383087|   -4.091224|   -4.014345|   -5.419198|
|         866|   -5.383148|   -4.090973|   -4.015280|   -5.418858|
|         867|   -5.383268|   -4.090680|   -4.016142|   -5.418597|
|         868|   -5.383451|   -4.090339|   -4.016925|   -5.418419|
|         869|   -5.383700|   -4.089948|   -4.017623|   -5.418333|
|         870|   -5.384015|   -4.089505|   -4.018233|   -5.418337|
|         871|   -5.384396|   -4.089009|   -4.018751|   -5.418434|
|         872|   -5.384846|   -4.088457|   -4.019177|   -5.418626|
|         873|   -5.385363|   -4.087849|   -4.019509|   -5.418917|
|         874|   -5.385949|   -4.087184|   -4.019750|   -5.419308|
|         875|   -5.386601|   -4.086463|   -4.019901|   -5.419796|
|         876|   -5.387318|   -4.085686|   -4.019964|   -5.420376|
|         877|   -5.388098|   -4.084856|   -4.019941|   -5.421049|
|         878|   -5.388939|   -4.083974|   -4.019837|   -5.421815|
|         879|   -5.389840|   -4.083043|   -4.019655|   -5.422664|
|         880|   -5.390798|   -4.082064|   -4.019398|   -5.423592|
|         881|   -5.391813|   -4.081043|   -4.019070|   -5.424597|
|         882|   -5.392882|   -4.079982|   -4.018676|   -5.425672|
|         883|   -5.394003|   -4.078886|   -4.018218|   -5.426818|
|         884|   -5.395175|   -4.077758|   -4.017700|   -5.428026|
|         885|   -5.396396|   -4.076603|   -4.017124|   -5.429288|
|         886|   -5.397663|   -4.075423|   -4.016492|   -5.430597|
|         887|   -5.398975|   -4.074223|   -4.015805|   -5.431948|
|         888|   -5.400331|   -4.073006|   -4.015067|   -5.433334|
|         889|   -5.401729|   -4.071775|   -4.014276|   -5.434749|
|         890|   -5.403168|   -4.070531|   -4.013434|   -5.436186|
|         891|   -5.404647|   -4.069278|   -4.012539|   -5.437642|
|         892|   -5.406164|   -4.068017|   -4.011593|   -5.439110|
|         893|   -5.407719|   -4.066749|   -4.010596|   -5.440585|
|         894|   -5.409309|   -4.065477|   -4.009548|   -5.442065|
|         895|   -5.410932|   -4.064202|   -4.008453|   -5.443540|
|         896|   -5.412586|   -4.062925|   -4.007313|   -5.445003|
|         897|   -5.414268|   -4.061645|   -4.006128|   -5.446453|
|         898|   -5.415977|   -4.060365|   -4.004903|   -5.447886|
|         899|   -5.417708|   -4.059084|   -4.003641|   -5.449298|
|         900|   -5.419460|   -4.057803|   -4.002346|   -5.450686|
|         901|   -5.421229|   -4.056523|   -4.001024|   -5.452049|
|         902|   -5.423012|   -4.055242|   -3.999678|   -5.453382|
|         903|   -5.424804|   -4.053964|   -3.998316|   -5.454685|
|         904|   -5.426602|   -4.052687|   -3.996942|   -5.455955|
|         905|   -5.428403|   -4.051411|   -3.995562|   -5.457193|
|         906|   -5.430201|   -4.050140|   -3.994184|   -5.458397|
|         907|   -5.431992|   -4.048872|   -3.992813|   -5.459566|
|         908|   -5.433771|   -4.047610|   -3.991457|   -5.460702|
|         909|   -5.435535|   -4.046354|   -3.990122|   -5.461805|
|         910|   -5.437277|   -4.045107|   -3.988814|   -5.462877|
|         911|   -5.438993|   -4.043870|   -3.987541|   -5.463919|
|         912|   -5.440678|   -4.042644|   -3.986306|   -5.464930|
|         913|   -5.442327|   -4.041431|   -3.985115|   -5.465909|
|         914|   -5.443936|   -4.040234|   -3.983975|   -5.466855|
|         915|   -5.445501|   -4.039054|   -3.982889|   -5.467771|
|         916|   -5.447016|   -4.037893|   -3.981861|   -5.468657|
|         917|   -5.448480|   -4.036753|   -3.980894|   -5.469514|
|         918|   -5.449889|   -4.035636|   -3.979988|   -5.470342|
|         919|   -5.451240|   -4.034542|   -3.979145|   -5.471146|
|         920|   -5.452533|   -4.033474|   -3.978365|   -5.471925|
|         921|   -5.453766|   -4.032431|   -3.977644|   -5.472678|
|         922|   -5.454941|   -4.031416|   -3.976981|   -5.473405|
|         923|   -5.456058|   -4.030428|   -3.976372|   -5.474105|
|         924|   -5.457119|   -4.029467|   -3.975813|   -5.474777|
|         925|   -5.458128|   -4.028535|   -3.975297|   -5.475418|
|         926|   -5.459087|   -4.027630|   -3.974819|   -5.476028|
|         927|   -5.460001|   -4.026753|   -3.974373|   -5.476607|
|         928|   -5.460874|   -4.025904|   -3.973951|   -5.477151|
|         929|   -5.461711|   -4.025082|   -3.973547|   -5.477657|
|         930|   -5.462517|   -4.024288|   -3.973152|   -5.478122|
|         931|   -5.463297|   -4.023522|   -3.972761|   -5.478545|
|         932|   -5.464056|   -4.022783|   -3.972367|   -5.478922|
|         933|   -5.464797|   -4.022072|   -3.971963|   -5.479250|
|         934|   -5.465525|   -4.021389|   -3.971545|   -5.479526|
|         935|   -5.466243|   -4.020736|   -3.971108|   -5.479745|
|         936|   -5.466953|   -4.020113|   -3.970650|   -5.479906|
|         937|   -5.467656|   -4.019522|   -3.970168|   -5.480007|
|         938|   -5.468354|   -4.018963|   -3.969659|   -5.480046|
|         939|   -5.469046|   -4.018439|   -3.969124|   -5.480019|
|         940|   -5.469732|   -4.017950|   -3.968563|   -5.479921|
|         941|   -5.470411|   -4.017499|   -3.967977|   -5.479751|
|         942|   -5.471080|   -4.017087|   -3.967367|   -5.479509|
|         943|   -5.471737|   -4.016716|   -3.966737|   -5.479193|
|         944|   -5.472379|   -4.016386|   -3.966090|   -5.478800|
|         945|   -5.473003|   -4.016100|   -3.965431|   -5.478331|
|         946|   -5.473605|   -4.015858|   -3.964763|   -5.477786|
|         947|   -5.474181|   -4.015662|   -3.964092|   -5.477164|
|         948|   -5.474727|   -4.015512|   -3.963423|   -5.476465|
|         949|   -5.475241|   -4.015408|   -3.962762|   -5.475690|
|         950|   -5.475717|   -4.015352|   -3.962114|   -5.474840|
|         951|   -5.476153|   -4.015341|   -3.961485|   -5.473918|
|         952|   -5.476547|   -4.015376|   -3.960881|   -5.472925|
|         953|   -5.476895|   -4.015455|   -3.960308|   -5.471864|
|         954|   -5.477195|   -4.015577|   -3.959771|   -5.470736|
|         955|   -5.477446|   -4.015739|   -3.959274|   -5.469545|
|         956|   -5.477647|   -4.015939|   -3.958822|   -5.468292|
|         957|   -5.477797|   -4.016173|   -3.958420|   -5.466979|
|         958|   -5.477897|   -4.016438|   -3.958070|   -5.465608|
|         959|   -5.477946|   -4.016730|   -3.957775|   -5.464182|
|         960|   -5.477948|   -4.017043|   -3.957536|   -5.462703|
|         961|   -5.477903|   -4.017373|   -3.957356|   -5.461173|
|         962|   -5.477813|   -4.017714|   -3.957234|   -5.459594|
|         963|   -5.477683|   -4.018062|   -3.957171|   -5.457971|
|         964|   -5.477514|   -4.018410|   -3.957165|   -5.456304|
|         965|   -5.477311|   -4.018754|   -3.957215|   -5.454593|
|         966|   -5.477076|   -4.019088|   -3.957319|   -5.452841|
|         967|   -5.476813|   -4.019408|   -3.957475|   -5.451047|
|         968|   -5.476525|   -4.019711|   -3.957680|   -5.449214|
|         969|   -5.476214|   -4.019992|   -3.957931|   -5.447340|
|         970|   -5.475884|   -4.020250|   -3.958226|   -5.445428|
|         971|   -5.475534|   -4.020483|   -3.958562|   -5.443481|
|         972|   -5.475166|   -4.020692|   -3.958936|   -5.441500|
|         973|   -5.474780|   -4.020876|   -3.959346|   -5.439480|
|         974|   -5.474374|   -4.021039|   -3.959789|   -5.437422|
|         975|   -5.473945|   -4.021183|   -3.960264|   -5.435326|
[...]
|       49749|   -5.863821|   -3.075118|   -3.455869|   -4.538960|
|       49750|   -5.863696|   -3.075098|   -3.455772|   -4.538925|
|       49751|   -5.863572|   -3.075078|   -3.455675|   -4.538892|
|       49752|   -5.863447|   -3.075059|   -3.455578|   -4.538860|
|       49753|   -5.863322|   -3.075039|   -3.455481|   -4.538828|
|       49754|   -5.863197|   -3.075020|   -3.455384|   -4.538796|
|       49755|   -5.863072|   -3.075001|   -3.455287|   -4.538765|
|       49756|   -5.862947|   -3.074982|   -3.455191|   -4.538733|
|       49757|   -5.862821|   -3.074963|   -3.455094|   -4.538702|
|       49758|   -5.862696|   -3.074944|   -3.454997|   -4.538671|
|       49759|   -5.862571|   -3.074925|   -3.454899|   -4.538639|
|       49760|   -5.862445|   -3.074907|   -3.454802|   -4.538608|
|       49761|   -5.862320|   -3.074888|   -3.454705|   -4.538576|
|       49762|   -5.862195|   -3.074869|   -3.454607|   -4.538545|
|       49763|   -5.862070|   -3.074850|   -3.454510|   -4.538514|
|       49764|   -5.861945|   -3.074831|   -3.454413|   -4.538482|
|       49765|   -5.861820|   -3.074812|   -3.454315|   -4.538450|
|       49766|   -5.861695|   -3.074793|   -3.454217|   -4.538418|
|       49767|   -5.861571|   -3.074774|   -3.454120|   -4.538387|
|       49768|   -5.861446|   -3.074755|   -3.454022|   -4.538355|
|       49769|   -5.861322|   -3.074736|   -3.453924|   -4.538323|
|       49770|   -5.861198|   -3.074717|   -3.453826|   -4.538291|
|       49771|   -5.861074|   -3.074698|   -3.453728|   -4.538259|
|       49772|   -5.860949|   -3.074679|   -3.453629|   -4.538227|
|       49773|   -5.860825|   -3.074660|   -3.453530|   -4.538195|
|       49774|   -5.860701|   -3.074641|   -3.453431|   -4.538162|
|       49775|   -5.860577|   -3.074622|   -3.453333|   -4.538130|
|       49776|   -5.860452|   -3.074603|   -3.453234|   -4.538098|
|       49777|   -5.860328|   -3.074583|   -3.453135|   -4.538065|
|       49778|   -5.860204|   -3.074564|   -3.453036|   -4.538033|
|       49779|   -5.860079|   -3.074545|   -3.452937|   -4.538000|
|       49780|   -5.859955|   -3.074526|   -3.452838|   -4.537967|
|       49781|   -5.859831|   -3.074507|   -3.452739|   -4.537934|
|       49782|   -5.859707|   -3.074487|   -3.452639|   -4.537901|
|       49783|   -5.859582|   -3.074468|   -3.452540|   -4.537868|
|       49784|   -5.859459|   -3.074449|   -3.452440|   -4.537834|
|       49785|   -5.859335|   -3.074430|   -3.452340|   -4.537801|
|       49786|   -5.859211|   -3.074411|   -3.452240|   -4.537768|
|       49787|   -5.859086|   -3.074392|   -3.452141|   -4.537737|
|       49788|   -5.858962|   -3.074374|   -3.452042|   -4.537706|
|       49789|   -5.858838|   -3.074356|   -3.451944|   -4.537675|
|       49790|   -5.858714|   -3.074338|   -3.451845|   -4.537644|
|       49791|   -5.858589|   -3.074320|   -3.451746|   -4.537614|
|       49792|   -5.858465|   -3.074303|   -3.451647|   -4.537584|
|       49793|   -5.858340|   -3.074285|   -3.451548|   -4.537554|
|       49794|   -5.858215|   -3.074267|   -3.451449|   -4.537524|
|       49795|   -5.858091|   -3.074250|   -3.451349|   -4.537494|
|       49796|   -5.857965|   -3.074232|   -3.451250|   -4.537464|
|       49797|   -5.857840|   -3.074214|   -3.451150|   -4.537433|
|       49798|   -5.857715|   -3.074196|   -3.451051|   -4.537403|
|       49799|   -5.857589|   -3.074178|   -3.450951|   -4.537372|
|       49800|   -5.857464|   -3.074160|   -3.450851|   -4.537341|
|       49801|   -5.857338|   -3.074142|   -3.450751|   -4.537310|
|       49802|   -5.857213|   -3.074124|   -3.450651|   -4.537279|
|       49803|   -5.857088|   -3.074106|   -3.450551|   -4.537248|
|       49804|   -5.856962|   -3.074087|   -3.450451|   -4.537216|
|       49805|   -5.856837|   -3.074069|   -3.450351|   -4.537185|
|       49806|   -5.856713|   -3.074051|   -3.450251|   -4.537153|
|       49807|   -5.856588|   -3.074033|   -3.450151|   -4.537121|
|       49808|   -5.856464|   -3.074015|   -3.450051|   -4.537089|
|       49809|   -5.856341|   -3.073997|   -3.449952|   -4.537057|
|       49810|   -5.856218|   -3.073979|   -3.449852|   -4.537025|
|       49811|   -5.856095|   -3.073961|   -3.449752|   -4.536993|
|       49812|   -5.855972|   -3.073943|   -3.449652|   -4.536961|
|       49813|   -5.855850|   -3.073925|   -3.449552|   -4.536930|
|       49814|   -5.855727|   -3.073907|   -3.449452|   -4.536898|
|       49815|   -5.855606|   -3.073888|   -3.449351|   -4.536866|
|       49816|   -5.855484|   -3.073870|   -3.449250|   -4.536835|
|       49817|   -5.855362|   -3.073852|   -3.449149|   -4.536803|
|       49818|   -5.855241|   -3.073833|   -3.449048|   -4.536772|
|       49819|   -5.855119|   -3.073815|   -3.448947|   -4.536740|
|       49820|   -5.854997|   -3.073797|   -3.448845|   -4.536708|
|       49821|   -5.854875|   -3.073779|   -3.448745|   -4.536677|
|       49822|   -5.854753|   -3.073761|   -3.448644|   -4.536647|
|       49823|   -5.854630|   -3.073743|   -3.448544|   -4.536616|
|       49824|   -5.854506|   -3.073726|   -3.448444|   -4.536586|
|       49825|   -5.854383|   -3.073709|   -3.448345|   -4.536556|
|       49826|   -5.854259|   -3.073692|   -3.448245|   -4.536526|
|       49827|   -5.854135|   -3.073675|   -3.448145|   -4.536495|
|       49828|   -5.854012|   -3.073658|   -3.448046|   -4.536465|
|       49829|   -5.853889|   -3.073641|   -3.447947|   -4.536435|
|       49830|   -5.853765|   -3.073624|   -3.447848|   -4.536405|
|       49831|   -5.853643|   -3.073607|   -3.447749|   -4.536375|
|       49832|   -5.853520|   -3.073590|   -3.447650|   -4.536345|
|       49833|   -5.853398|   -3.073573|   -3.447550|   -4.536314|
|       49834|   -5.853276|   -3.073556|   -3.447451|   -4.536284|
|       49835|   -5.853154|   -3.073539|   -3.447352|   -4.536254|
|       49836|   -5.853033|   -3.073522|   -3.447252|   -4.536224|
|       49837|   -5.852911|   -3.073505|   -3.447152|   -4.536195|
|       49838|   -5.852790|   -3.073487|   -3.447052|   -4.536165|
|       49839|   -5.852669|   -3.073470|   -3.446952|   -4.536135|
|       49840|   -5.852547|   -3.073453|   -3.446852|   -4.536105|
|       49841|   -5.852426|   -3.073436|   -3.446752|   -4.536075|
|       49842|   -5.852305|   -3.073418|   -3.446652|   -4.536045|
|       49843|   -5.852183|   -3.073401|   -3.446552|   -4.536014|
|       49844|   -5.852061|   -3.073383|   -3.446452|   -4.535983|
|       49845|   -5.851940|   -3.073366|   -3.446352|   -4.535952|
|       49846|   -5.851818|   -3.073348|   -3.446252|   -4.535921|
|       49847|   -5.851696|   -3.073331|   -3.446153|   -4.535890|
|       49848|   -5.851574|   -3.073314|   -3.446053|   -4.535859|
|       49849|   -5.851452|   -3.073296|   -3.445954|   -4.535828|
|       49850|   -5.851331|   -3.073278|   -3.445854|   -4.535796|
|       49851|   -5.851210|   -3.073261|   -3.445754|   -4.535764|
|       49852|   -5.851090|   -3.073243|   -3.445654|   -4.535733|
|       49853|   -5.850970|   -3.073225|   -3.445554|   -4.535701|
|       49854|   -5.850851|   -3.073207|   -3.445455|   -4.535670|
|       49855|   -5.850733|   -3.073190|   -3.445355|   -4.535638|
|       49856|   -5.850614|   -3.073172|   -3.445255|   -4.535606|
|       49857|   -5.850497|   -3.073154|   -3.445155|   -4.535575|
|       49858|   -5.850379|   -3.073137|   -3.445056|   -4.535544|
|       49859|   -5.850262|   -3.073120|   -3.444957|   -4.535514|
|       49860|   -5.850144|   -3.073103|   -3.444857|   -4.535484|
|       49861|   -5.850026|   -3.073086|   -3.444758|   -4.535454|
|       49862|   -5.849908|   -3.073069|   -3.444659|   -4.535424|
|       49863|   -5.849790|   -3.073053|   -3.444560|   -4.535395|
|       49864|   -5.849672|   -3.073036|   -3.444461|   -4.535365|
|       49865|   -5.849553|   -3.073020|   -3.444362|   -4.535336|
|       49866|   -5.849434|   -3.073003|   -3.444264|   -4.535307|
|       49867|   -5.849314|   -3.072987|   -3.444165|   -4.535278|
|       49868|   -5.849194|   -3.072971|   -3.444067|   -4.535248|
|       49869|   -5.849074|   -3.072954|   -3.443969|   -4.535219|
|       49870|   -5.848954|   -3.072938|   -3.443871|   -4.535189|
|       49871|   -5.848833|   -3.072921|   -3.443773|   -4.535159|
|       49872|   -5.848713|   -3.072904|   -3.443674|   -4.535129|
|       49873|   -5.848592|   -3.072888|   -3.443576|   -4.535099|
|       49874|   -5.848472|   -3.072870|   -3.443477|   -4.535069|
|       49875|   -5.848352|   -3.072853|   -3.443379|   -4.535039|
|       49876|   -5.848232|   -3.072836|   -3.443279|   -4.535009|
|       49877|   -5.848113|   -3.072818|   -3.443180|   -4.534979|
|       49878|   -5.847994|   -3.072800|   -3.443080|   -4.534949|
|       49879|   -5.847875|   -3.072782|   -3.442981|   -4.534919|
|       49880|   -5.847756|   -3.072765|   -3.442882|   -4.534888|
|       49881|   -5.847637|   -3.072747|   -3.442783|   -4.534858|
|       49882|   -5.847518|   -3.072729|   -3.442683|   -4.534827|
|       49883|   -5.847399|   -3.072711|   -3.442584|   -4.534797|
|       49884|   -5.847280|   -3.072693|   -3.442485|   -4.534766|
|       49885|   -5.847160|   -3.072675|   -3.442386|   -4.534734|
|       49886|   -5.847041|   -3.072657|   -3.442287|   -4.534703|
|       49887|   -5.846921|   -3.072639|   -3.442189|   -4.534672|
|       49888|   -5.846802|   -3.072621|   -3.442090|   -4.534641|
|       49889|   -5.846683|   -3.072604|   -3.441992|   -4.534610|
|       49890|   -5.846563|   -3.072586|   -3.441893|   -4.534579|
|       49891|   -5.846445|   -3.072568|   -3.441796|   -4.534548|
|       49892|   -5.846326|   -3.072551|   -3.441699|   -4.534518|
|       49893|   -5.846207|   -3.072535|   -3.441602|   -4.534489|
|       49894|   -5.846089|   -3.072518|   -3.441505|   -4.534460|
|       49895|   -5.845971|   -3.072501|   -3.441409|   -4.534431|
|       49896|   -5.845853|   -3.072485|   -3.441312|   -4.534402|
|       49897|   -5.845736|   -3.072468|   -3.441215|   -4.534372|
|       49898|   -5.845619|   -3.072452|   -3.441119|   -4.534343|
|       49899|   -5.845503|   -3.072435|   -3.441022|   -4.534314|
|       49900|   -5.845387|   -3.072419|   -3.440926|   -4.534285|
|       49901|   -5.845271|   -3.072402|   -3.440829|   -4.534256|
|       49902|   -5.845156|   -3.072386|   -3.440732|   -4.534227|
|       49903|   -5.845041|   -3.072369|   -3.440635|   -4.534197|
|       49904|   -5.844925|   -3.072352|   -3.440537|   -4.534167|
|       49905|   -5.844810|   -3.072334|   -3.440440|   -4.534137|
|       49906|   -5.844694|   -3.072317|   -3.440343|   -4.534107|
|       49907|   -5.844579|   -3.072300|   -3.440246|   -4.534077|
|       49908|   -5.844463|   -3.072283|   -3.440150|   -4.534046|
|       49909|   -5.844348|   -3.072266|   -3.440053|   -4.534015|
|       49910|   -5.844233|   -3.072248|   -3.439957|   -4.533985|
|       49911|   -5.844117|   -3.072231|   -3.439861|   -4.533955|
|       49912|   -5.844002|   -3.072214|   -3.439765|   -4.533925|
|       49913|   -5.843886|   -3.072197|   -3.439669|   -4.533895|
|       49914|   -5.843771|   -3.072180|   -3.439574|   -4.533865|
|       49915|   -5.843657|   -3.072163|   -3.439479|   -4.533835|
|       49916|   -5.843542|   -3.072146|   -3.439384|   -4.533805|
|       49917|   -5.843428|   -3.072129|   -3.439289|   -4.533775|
|       49918|   -5.843314|   -3.072112|   -3.439194|   -4.533745|
|       49919|   -5.843201|   -3.072094|   -3.439099|   -4.533715|
|       49920|   -5.843087|   -3.072077|   -3.439003|   -4.533686|
|       49921|   -5.842974|   -3.072060|   -3.438908|   -4.533656|
|       49922|   -5.842862|   -3.072043|   -3.438812|   -4.533627|
|       49923|   -5.842749|   -3.072025|   -3.438716|   -4.533597|
|       49924|   -5.842637|   -3.072007|   -3.438620|   -4.533567|
|       49925|   -5.842524|   -3.071990|   -3.438524|   -4.533537|
|       49926|   -5.842412|   -3.071972|   -3.438428|   -4.533507|
|       49927|   -5.842299|   -3.071954|   -3.438333|   -4.533476|
|       49928|   -5.842187|   -3.071937|   -3.438237|   -4.533446|
|       49929|   -5.842074|   -3.071920|   -3.438142|   -4.533416|
|       49930|   -5.841962|   -3.071902|   -3.438047|   -4.533386|
|       49931|   -5.841849|   -3.071885|   -3.437952|   -4.533356|
|       49932|   -5.841737|   -3.071868|   -3.437857|   -4.533325|
|       49933|   -5.841625|   -3.071851|   -3.437763|   -4.533295|
|       49934|   -5.841513|   -3.071834|   -3.437669|   -4.533265|
|       49935|   -5.841401|   -3.071816|   -3.437575|   -4.533234|
|       49936|   -5.841290|   -3.071799|   -3.437481|   -4.533203|
|       49937|   -5.841179|   -3.071782|   -3.437387|   -4.533172|
|       49938|   -5.841070|   -3.071765|   -3.437294|   -4.533142|
|       49939|   -5.840961|   -3.071748|   -3.437200|   -4.533111|
|       49940|   -5.840853|   -3.071731|   -3.437107|   -4.533081|
|       49941|   -5.840745|   -3.071714|   -3.437013|   -4.533050|
|       49942|   -5.840638|   -3.071696|   -3.436919|   -4.533021|
|       49943|   -5.840531|   -3.071679|   -3.436824|   -4.532990|
|       49944|   -5.840424|   -3.071662|   -3.436729|   -4.532960|
|       49945|   -5.840318|   -3.071644|   -3.436634|   -4.532930|
|       49946|   -5.840211|   -3.071627|   -3.436540|   -4.532900|
|       49947|   -5.840105|   -3.071610|   -3.436445|   -4.532870|
|       49948|   -5.839998|   -3.071592|   -3.436351|   -4.532840|
|       49949|   -5.839891|   -3.071575|   -3.436257|   -4.532810|
|       49950|   -5.839783|   -3.071558|   -3.436162|   -4.532779|
|       49951|   -5.839675|   -3.071541|   -3.436068|   -4.532749|
|       49952|   -5.839567|   -3.071523|   -3.435974|   -4.532718|
|       49953|   -5.839459|   -3.071506|   -3.435881|   -4.532688|
|       49954|   -5.839350|   -3.071489|   -3.435787|   -4.532657|
|       49955|   -5.839242|   -3.071472|   -3.435694|   -4.532626|
|       49956|   -5.839134|   -3.071454|   -3.435600|   -4.532595|
|       49957|   -5.839026|   -3.071437|   -3.435507|   -4.532564|
|       49958|   -5.838918|   -3.071419|   -3.435414|   -4.532533|
|       49959|   -5.838811|   -3.071402|   -3.435320|   -4.532502|
|       49960|   -5.838703|   -3.071385|   -3.435227|   -4.532471|
|       49961|   -5.838597|   -3.071367|   -3.435134|   -4.532440|
|       49962|   -5.838490|   -3.071350|   -3.435040|   -4.532410|
|       49963|   -5.838384|   -3.071333|   -3.434947|   -4.532380|
|       49964|   -5.838278|   -3.071316|   -3.434854|   -4.532351|
|       49965|   -5.838172|   -3.071299|   -3.434761|   -4.532322|
|       49966|   -5.838066|   -3.071283|   -3.434668|   -4.532293|
|       49967|   -5.837960|   -3.071266|   -3.434575|   -4.532265|
|       49968|   -5.837853|   -3.071250|   -3.434482|   -4.532237|
|       49969|   -5.837747|   -3.071234|   -3.434389|   -4.532209|
|       49970|   -5.837640|   -3.071219|   -3.434297|   -4.532182|
|       49971|   -5.837533|   -3.071203|   -3.434204|   -4.532154|
|       49972|   -5.837425|   -3.071187|   -3.434112|   -4.532127|
|       49973|   -5.837318|   -3.071171|   -3.434020|   -4.532100|
|       49974|   -5.837210|   -3.071155|   -3.433927|   -4.532072|
|       49975|   -5.837102|   -3.071138|   -3.433835|   -4.532043|
|       49976|   -5.836995|   -3.071122|   -3.433743|   -4.532014|
|       49977|   -5.836887|   -3.071106|   -3.433651|   -4.531985|
|       49978|   -5.836781|   -3.071089|   -3.433559|   -4.531956|
|       49979|   -5.836675|   -3.071072|   -3.433468|   -4.531927|
|       49980|   -5.836569|   -3.071056|   -3.433376|   -4.531897|
|       49981|   -5.836464|   -3.071039|   -3.433284|   -4.531868|
|       49982|   -5.836359|   -3.071022|   -3.433193|   -4.531838|
|       49983|   -5.836255|   -3.071005|   -3.433101|   -4.531808|
|       49984|   -5.836152|   -3.070987|   -3.433009|   -4.531778|
|       49985|   -5.836049|   -3.070970|   -3.432917|   -4.531748|
|       49986|   -5.835946|   -3.070952|   -3.432825|   -4.531718|
|       49987|   -5.835844|   -3.070935|   -3.432733|   -4.531688|
|       49988|   -5.835742|   -3.070917|   -3.432641|   -4.531658|
|       49989|   -5.835640|   -3.070900|   -3.432549|   -4.531628|
|       49990|   -5.835537|   -3.070882|   -3.432458|   -4.531598|
|       49991|   -5.835434|   -3.070865|   -3.432367|   -4.531568|
|       49992|   -5.835331|   -3.070848|   -3.432276|   -4.531539|
|       49993|   -5.835228|   -3.070830|   -3.432184|   -4.531508|
|       49994|   -5.835124|   -3.070813|   -3.432093|   -4.531478|
|       49995|   -5.835020|   -3.070796|   -3.432002|   -4.531448|
|       49996|   -5.834917|   -3.070778|   -3.431912|   -4.531418|
|       49997|   -5.834813|   -3.070761|   -3.431821|   -4.531387|
|       49998|   -5.834710|   -3.070744|   -3.431731|   -4.531358|
|       49999|   -5.834607|   -3.070728|   -3.431642|   -4.531330|

----------------------------- Solver Exit -------------------------------

Maximum number of iterations reached (ITER = 50000) before convergence.
+-----------------------------------------------------------------------+
|      Convergence Field     |     Value    |   Criterion  |  Converged |
+-----------------------------------------------------------------------+
|                      rms[P]|      -5.83461|         < -10|          No|
|                      rms[U]|      -3.07073|         < -10|          No|
|                      rms[V]|      -3.43164|         < -10|          No|
|                      rms[k]|      -2.26847|         < -10|          No|
+-----------------------------------------------------------------------+
-------------------------------------------------------------------------
+-----------------------------------------------------------------------+
|        File Writing Summary       |              Filename             |
+-----------------------------------------------------------------------+
|SU2 restart                        |restart_venturi_mixturedensity_30kW_fine_test.dat|
|                                   |                      (146.27 MB/s)|
|Paraview                           |flow_venturi_mixturedensity_30kW_fine_test_00049999.vtu|
|                                   |                     (3.60209 MB/s)|
|Paraview surface                   |surface_flow_venturi_mixturedensity_30kW_fine_test.vtu|
|                                   |                     (3.77713 MB/s)|
+-----------------------------------------------------------------------+

------------------------- Solver Postprocessing -------------------------
Deleted CNumerics container.
Deleted CIntegration container.
Deleted CSolver container.
Deleted CIteration container.
Deleted CInterface container.
Deleted CGeometry container.
Deleted CFreeFormDefBox class.
Deleted CSurfaceMovement class.
Deleted CVolumetricMovement class.
Deleted CConfig container.
Deleted nInst container.
Deleted COutput class.
-------------------------------------------------------------------------


-------------------------- Performance Summary --------------------------
Simulation totals:
   Wall-clock time (hrs):    0.443554 |            Core-hrs:     62.0976
                   Cores:         140 |          DOFs/point:           7
             Points/core:     2092.49 |   Ghost points/core:       197.7
 Ghost/Owned Point Ratio:   0.0944809 | 

Preprocessing phase:
       Preproc. Time (s):    0.681942 |   Preproc. Time (%):   0.0427069

Compute phase:
        Compute Time (s):     1583.28 |    Compute Time (%):     99.1534
         Iteration count:       50000 |         Avg. s/iter:   0.0316655
     Core-s/iter/Mpoints:     13.8266 |           Mpoints/s:     10.1254

Output phase:
         Output Time (s):     12.8362 |     Output Time (%):    0.803874
            Output count:           1 |       Avg. s/output:     12.8362
 Restart Aggr. BW (MB/s):     1210.12 |           MB/s/core:     8.64369
-------------------------------------------------------------------------


------------------------- Exit Success (SU2_CFD) ------------------------

