scsub> Executing:  'cd /home/hem1dev/Codes/SU2_Github_Mark_Test/SU2/Venturi'


WARNING: CONV_CRITERIA is deprecated. SU2 will choose the criteria automatically based on the CONV_FIELD.
That is, RESIDUAL for any RMS_* BGS_* value, and CAUCHY for coefficients such as DRAG etc.


-------------------------------------------------------------------------
|    ___ _   _ ___                                                      |
|   / __| | | |_  )   Release 7.1.1 "Blackbird"                         |
|   \__ \ |_| |/ /                                                      |
|   |___/\___//___|   Suite (Computational Fluid Dynamics Code)         |
|                                                                       |
-------------------------------------------------------------------------
| SU2 Project Website: https://su2code.github.io                        |
|                                                                       |
| The SU2 Project is maintained by the SU2 Foundation                   |
| (http://su2foundation.org)                                            |
-------------------------------------------------------------------------
| Copyright 2012-2021, SU2 Contributors                                 |
|                                                                       |
| SU2 is free software; you can redistribute it and/or                  |
| modify it under the terms of the GNU Lesser General Public            |
| License as published by the Free Software Foundation; either          |
| version 2.1 of the License, or (at your option) any later version.    |
|                                                                       |
| SU2 is distributed in the hope that it will be useful,                |
| but WITHOUT ANY WARRANTY; without even the implied warranty of        |
| MERCHANTABILITY or FITNESS FOR A PARTICULAR PURPOSE. See the GNU      |
| Lesser General Public License for more details.                       |
|                                                                       |
| You should have received a copy of the GNU Lesser General Public      |
| License along with SU2. If not, see <http://www.gnu.org/licenses/>.   |
-------------------------------------------------------------------------


WARNING: CONV_CRITERIA is deprecated. SU2 will choose the criteria automatically based on the CONV_FIELD.
That is, RESIDUAL for any RMS_* BGS_* value, and CAUCHY for coefficients such as DRAG etc.


Parsing config file for zone 0


WARNING: CONV_CRITERIA is deprecated. SU2 will choose the criteria automatically based on the CONV_FIELD.
That is, RESIDUAL for any RMS_* BGS_* value, and CAUCHY for coefficients such as DRAG etc.


----------------- Physical Case Definition ( Zone 0 ) -------------------
Incompressible RANS equations.
Turbulence model: Menter's SST
Hybrid RANS/LES: No Hybrid RANS/LES
No restart solution, use the values at infinity (freestream).
Dimensional simulation.
The reference area is 1 m^2.
The semi-span will be computed using the max y(3D) value.
The reference length is 1 m.
Input mesh file name: venturi_refined_withblock.cgns

--------------- Space Numerical Integration ( Zone 0 ) ------------------
Flux difference splitting (FDS) upwind scheme for the flow inviscid terms.
Second order integration in space, with slope limiter.
No slope-limiting method. 
Average of gradients with correction (viscous flow terms).
Average of gradients with correction (viscous turbulence terms).
Gradient for upwind reconstruction: inverse-distance weighted Least-Squares.
Gradient for viscous and source terms: inverse-distance weighted Least-Squares.

--------------- Time Numerical Integration  ( Zone 0 ) ------------------
Local time stepping (steady state simulation).
Euler implicit method for the flow equations.
FGMRES is used for solving the linear system.
Using a ILU(0) preconditioning.
Convergence criteria of the linear solver: 1e-08.
Max number of linear iterations: 30.
No CFL adaptation.
Courant-Friedrichs-Lewy number:      100
Euler implicit time integration for the turbulence model.

------------------ Convergence Criteria  ( Zone 0 ) ---------------------
Maximum number of solver subiterations: 50000.
Begin convergence monitoring at iteration 10.
Residual minimum value: 1e-10.
Cauchy series min. value: 1e-06.
Number of Cauchy elements: 100.
Begin windowed time average at iteration 0.

-------------------- Output Information ( Zone 0 ) ----------------------
Writing solution files every 5000 iterations.
Writing the convergence history file every 1 inner iterations.
Writing the screen convergence history every 1 inner iterations.
The tabular file format is CSV (.csv).
Convergence history file name: history_refined_withblock.
Forces breakdown file name: forces_breakdown.dat.
Surface file name: surface_flow_venturi_mixturedensity_30kW_refined_withblock.
Volume file name: flow_venturi_mixturedensity_30kW_refined_withblock.
Restart file name: restart_venturi_mixturedensity_30kW_refined_withblock.dat.

------------- Config File Boundary Information ( Zone 0 ) ---------------
+-----------------------------------------------------------------------+
|                        Marker Type|                        Marker Name|
+-----------------------------------------------------------------------+
|                     Symmetry plane|                               axis|
+-----------------------------------------------------------------------+
|                     Inlet boundary|                          gas_inlet|
|                                   |                          air_inlet|
+-----------------------------------------------------------------------+
|                    Outlet boundary|                             outlet|
+-----------------------------------------------------------------------+
|                     Heat flux wall|                    wall_needlecase|
|                                   |                        wall_needle|
|                                   |                       wall_venturi|
+-----------------------------------------------------------------------+

-------------------- Output Preprocessing ( Zone 0 ) --------------------
Screen output fields: INNER_ITER, RMS_PRESSURE, RMS_VELOCITY-X, RMS_VELOCITY-Y, RMS_PASSIVE_SCALAR
History output group(s): RMS_RES, AERO_COEFF, FLOW_COEFF
Convergence field(s): RMS_PRESSURE, RMS_VELOCITY-X, RMS_VELOCITY-Y, RMS_TKE
Warning: No (valid) fields chosen for time convergence monitoring. Time convergence monitoring inactive.
  Info: Ignoring the following volume output fields/groups:
  SOURCE, LOOKUP
Volume output fields: DENSITY, SOLUTION, PRIMITIVE, RESIDUAL, COORDINATES

------------------- Geometry Preprocessing ( Zone 0 ) -------------------
Reading the CGNS file: venturi_refined_withblock.cgns.
CGNS file contains 1 database(s).
Database 1, Base:  cell dimension of 2, physical dimension of 2.
1 total zone(s).
Zone 1, Zone: 119005 total vertices, 121308 total elements.
Loading CoordinateX values into linear partitions.
Loading CoordinateY values into linear partitions.
Distributing connectivity across all ranks.
Number of connectivity sections is 8.
Section fluid-part-surface_body contains 116850 elements of type Mixed.
Section gas_inlet contains 37 elements of type Mixed.
Section air_inlet contains 111 elements of type Mixed.
Section outlet contains 59 elements of type Mixed.
Section axis contains 1283 elements of type Mixed.
Section wall_venturi contains 1438 elements of type Mixed.
Section wall_needle contains 680 elements of type Mixed.
Section wall_needlecase contains 850 elements of type Mixed.
Loading volume section fluid-part-surface_body from file.
Loading surface section gas_inlet from file.
Loading surface section air_inlet from file.
Loading surface section outlet from file.
Loading surface section axis from file.
Loading surface section wall_venturi from file.
Loading surface section wall_needle from file.
Loading surface section wall_needlecase from file.
Two dimensional problem.
119005 grid points before partitioning.
116850 volume elements before partitioning.
7 surface markers.
37 boundary elements in index 0 (Marker = gas_inlet).
111 boundary elements in index 1 (Marker = air_inlet).
59 boundary elements in index 2 (Marker = outlet).
1283 boundary elements in index 3 (Marker = axis).
1438 boundary elements in index 4 (Marker = wall_venturi).
680 boundary elements in index 5 (Marker = wall_needle).
850 boundary elements in index 6 (Marker = wall_needlecase).
Executing the partitioning functions.
Building the graph adjacency structure.
Calling ParMETIS... graph partitioning complete (7852 edge cuts).
Distributing ParMETIS coloring.
Rebalancing vertices.
Rebalancing volume element connectivity.
Rebalancing markers and surface elements.
134978 vertices including ghost points. 
124698 interior elements including halo cells. 
153 triangles.
124545 quadrilaterals.
Establishing MPI communication patterns.
Setting point connectivity.
Renumbering points (Reverse Cuthill McKee Ordering).
Recomputing point connectivity.
Setting element connectivity.
Checking the numerical grid orientation.
All volume elements are correctly orientend.
All surface elements are correctly orientend.
Identifying edges and vertices.
Setting the control volume structure.
Area of the computational grid: 0.00391554.
Searching for the closest normal neighbors to the surfaces.
Storing a mapping from global to local point index.
Compute the surface curvature.
Max K: 18506.3. Mean K: 143.652. Standard deviation K: 1205.15.
Checking for periodicity.
Computing mesh quality statistics for the dual control volumes.
+--------------------------------------------------------------+
|           Mesh Quality Metric|        Minimum|        Maximum|
+--------------------------------------------------------------+
|    Orthogonality Angle (deg.)|        52.0822|        89.9999|
|     CV Face Area Aspect Ratio|        1.00004|        12.1311|
|           CV Sub-Volume Ratio|              1|         16.456|
+--------------------------------------------------------------+
Finding max control volume width.
Communicating number of neighbors.
Wetted area = 0 m^2.
Area projection in the x-plane = 0 m, y-plane = 0 m.
Max. coordinate in the x-direction = -1e+10 m, y-direction = -1e+10 m.
Min. coordinate in the x-direction = 1e+10 m, y-direction = 1e+10 m.
Checking if Euler & Symmetry markers are straight/plane:
Boundary marker axis is a single straight.
Computing wall distances.

-------------------- Solver Preprocessing ( Zone 0 ) --------------------
Incompressible flow: rho_ref, vel_ref, temp_ref, p_ref
are set to 1.0 in order to perform a dimensional calculation.
Force coefficients computed using initial values.
The reference area for force coeffs. is 1 m^2.
The reference length for force coeffs. is 1 m.
The pressure is decomposed into thermodynamic and dynamic components.
The initial value of the dynamic pressure is 0.
Mach number: 0, computed using fluid speed of sound.
For external flows, the initial state is imposed at the far-field.
Angle of attack (deg): 0, computed using the initial velocity.
Side slip angle (deg): 0, computed using the initial velocity.
Reynolds number per meter: 64288, computed using initial values.
Reynolds number is a byproduct of inputs only (not used internally).
SI units only. The grid should be dimensional (meters).
Energy equation is active and coupled for variable density.

-- Models:
+------------------------------------------------------------------------------+
|          Viscosity Model|        Conductivity Model|              Fluid Model|
+------------------------------------------------------------------------------+
|               SUTHERLAND|          CONSTANT_PRANDTL|+------------------------------------------------------------------------------+
-- Fluid properties:
+------------------------------------------------------------------------------+
|                  Name|    Dim. value|    Ref. value|      Unit|Non-dim. value|
+------------------------------------------------------------------------------+
|        Ref. Viscosity|     1.716e-05|             1|   N.s/m^2|     1.716e-05|
|      Sutherland Temp.|        273.15|             1|         K|        273.15|
|     Sutherland Const.|         110.4|             1|         K|         110.4|
+------------------------------------------------------------------------------+
|        Prandtl (Lam.)|             -|             -|         -|          0.72|
|       Prandtl (Turb.)|             -|             -|         -|           0.9|
+------------------------------------------------------------------------------+
-- Initial and free-stream conditions:
+------------------------------------------------------------------------------+
|                  Name|    Dim. value|    Ref. value|      Unit|Non-dim. value|
+------------------------------------------------------------------------------+
|      Dynamic Pressure|             0|             1|        Pa|             0|
|        Total Pressure|      0.585985|             1|        Pa|      0.585985|
|               Density|       1.17197|             1|    kg/m^3|       1.17197|
|           Temperature|           300|             1|         K|           300|
|            Velocity-X|             1|             1|       m/s|             1|
|            Velocity-Y|             0|             1|       m/s|             0|
|    Velocity Magnitude|             1|             1|       m/s|             1|
+------------------------------------------------------------------------------+
|             Viscosity|     1.823e-05|             1|   N.s/m^2|     1.823e-05|
|          Conductivity|             -|             1|   W/m^2.K|             -|
|     Turb. Kin. Energy|       0.00375|             1|   m^2/s^2|       0.00375|
|     Spec. Dissipation|        24.108|             1|       1/s|        24.108|
+------------------------------------------------------------------------------+
|           Mach Number|             -|             -|         -|             0|
|       Reynolds Number|             -|             -|         -|         64288|
+------------------------------------------------------------------------------+
Initialize Jacobian structure (Navier-Stokes). MG level: 0.
Initialize Jacobian structure (passive scalar model).
Initialize Jacobian structure (SST model).

------------------- Numerics Preprocessing ( Zone 0 ) -------------------

----------------- Integration Preprocessing ( Zone 0 ) ------------------

------------------- Iteration Preprocessing ( Zone 0 ) ------------------
Euler/Navier-Stokes/RANS fluid iteration.

------------------------------ Begin Solver -----------------------------

Simulation Run using the Single-zone Driver
Initializing passive scalar (initial condition).
initialization = 1 1
+----------------------------------------------------------------+
|  Inner_Iter|      rms[P]|      rms[U]|      rms[V]|      rms[c]|
+----------------------------------------------------------------+
|           0|   -4.771813|   -4.594484|   -4.007406|   -5.487239|
|           1|   -4.628949|   -4.615690|   -3.709706|   -5.007490|
|           2|   -4.979452|   -4.295775|   -3.667244|   -5.093442|
|           3|   -5.079810|   -4.496376|   -3.705757|   -5.253387|
|           4|   -5.117094|   -4.478747|   -3.714528|   -5.347845|
|           5|   -5.063493|   -4.421778|   -3.777887|   -5.428074|
|           6|   -5.129333|   -4.357280|   -3.721120|   -5.431592|
|           7|   -5.150762|   -4.293695|   -3.658014|   -5.410089|
|           8|   -5.144003|   -4.226383|   -3.624974|   -5.384955|
|           9|   -5.148245|   -4.158505|   -3.595520|   -5.361626|
|          10|   -5.158674|   -4.093277|   -3.567385|   -5.341504|
|          11|   -5.166252|   -4.032419|   -3.545118|   -5.324106|
|          12|   -5.171829|   -3.976464|   -3.524943|   -5.308479|
|          13|   -5.176908|   -3.925340|   -3.504397|   -5.293838|
|          14|   -5.181476|   -3.878511|   -3.484359|   -5.279738|
|          15|   -5.185520|   -3.835287|   -3.466056|   -5.265913|
|          16|   -5.189403|   -3.795065|   -3.447959|   -5.252309|
|          17|   -5.193921|   -3.757179|   -3.417004|   -5.239525|
|          18|   -5.198025|   -3.720397|   -3.390999|   -5.226464|
|          19|   -5.201730|   -3.684916|   -3.366332|   -5.213407|
|          20|   -5.205276|   -3.650780|   -3.345049|   -5.199811|
|          21|   -5.208731|   -3.617946|   -3.326643|   -5.185630|
|          22|   -5.212269|   -3.586439|   -3.310815|   -5.170661|
|          23|   -5.215934|   -3.556343|   -3.297002|   -5.154653|
|          24|   -5.219651|   -3.527521|   -3.284626|   -5.137479|
|          25|   -5.223321|   -3.499689|   -3.273083|   -5.119086|
|          26|   -5.226952|   -3.473008|   -3.261899|   -5.099293|
|          27|   -5.230297|   -3.447278|   -3.250714|   -5.078090|
|          28|   -5.233130|   -3.422232|   -3.238923|   -5.055832|
|          29|   -5.235783|   -3.397928|   -3.226240|   -5.032958|
|          30|   -5.238235|   -3.374415|   -3.213574|   -5.009737|
|          31|   -5.241009|   -3.351841|   -3.201017|   -4.987136|
|          32|   -5.243256|   -3.329866|   -3.188997|   -4.965161|
|          33|   -5.245425|   -3.308662|   -3.177597|   -4.943824|
|          34|   -5.247220|   -3.288206|   -3.166903|   -4.923193|
|          35|   -5.248430|   -3.268432|   -3.156815|   -4.903318|
|          36|   -5.248823|   -3.249228|   -3.146586|   -4.884465|
|          37|   -5.248445|   -3.230465|   -3.136350|   -4.866631|
|          38|   -5.247292|   -3.212188|   -3.126788|   -4.849669|
|          39|   -5.244938|   -3.194509|   -3.117970|   -4.833836|
|          40|   -5.241286|   -3.177385|   -3.109755|   -4.819164|
|          41|   -5.236207|   -3.160907|   -3.100238|   -4.805683|
|          42|   -5.230242|   -3.144894|   -3.091675|   -4.793086|
|          43|   -5.223001|   -3.129226|   -3.083849|   -4.781717|
|          44|   -5.214947|   -3.114131|   -3.076984|   -4.771379|
|          45|   -5.205387|   -3.099876|   -3.070964|   -4.762329|
|          46|   -5.195948|   -3.086325|   -3.065393|   -4.754057|
|          47|   -5.190127|   -3.073210|   -3.060330|   -4.746375|
|          48|   -5.184950|   -3.061820|   -3.056275|   -4.739031|
|          49|   -5.180178|   -3.050945|   -3.052750|   -4.731992|
|          50|   -5.175478|   -3.040463|   -3.049564|   -4.725127|
|          51|   -5.170550|   -3.030070|   -3.046558|   -4.718314|
|          52|   -5.165410|   -3.019255|   -3.043557|   -4.711778|
|          53|   -5.159790|   -3.008084|   -3.040440|   -4.705526|
|          54|   -5.153755|   -2.997068|   -3.037183|   -4.699264|
|          55|   -5.146982|   -2.986071|   -3.033740|   -4.692917|
|          56|   -5.139614|   -2.974606|   -3.029987|   -4.686404|
|          57|   -5.131411|   -2.962369|   -3.026211|   -4.679620|
|          58|   -5.122174|   -2.949433|   -3.021939|   -4.672438|
|          59|   -5.111306|   -2.935768|   -3.016631|   -4.664667|
|          60|   -5.097123|   -2.920912|   -3.009858|   -4.656820|
|          61|   -5.083227|   -2.905062|   -3.000664|   -4.648515|
|          62|   -5.069703|   -2.888054|   -2.990007|   -4.639643|
|          63|   -5.055277|   -2.868887|   -2.977075|   -4.630110|
|          64|   -5.039157|   -2.847465|   -2.961113|   -4.619964|
|          65|   -5.022528|   -2.825906|   -2.942165|   -4.609237|
|          66|   -5.005212|   -2.806842|   -2.922408|   -4.599742|
|          67|   -4.987534|   -2.790066|   -2.904674|   -4.592064|
|          68|   -4.970753|   -2.773757|   -2.889910|   -4.585731|
|          69|   -4.959084|   -2.756154|   -2.878776|   -4.579461|
|          70|   -4.950004|   -2.739518|   -2.874347|   -4.573089|
|          71|   -4.942288|   -2.726272|   -2.870647|   -4.567476|
|          72|   -4.938906|   -2.716744|   -2.868293|   -4.563341|
|          73|   -4.940010|   -2.712330|   -2.870306|   -4.560680|
|          74|   -4.944735|   -2.712428|   -2.877518|   -4.559322|
|          75|   -4.952443|   -2.715283|   -2.888330|   -4.558926|
|          76|   -4.962116|   -2.721707|   -2.902666|   -4.559186|
|          77|   -4.973273|   -2.731741|   -2.919004|   -4.559785|
|          78|   -4.985045|   -2.744450|   -2.935242|   -4.560499|
|          79|   -5.001128|   -2.755099|   -2.947818|   -4.560244|
|          80|   -5.011134|   -2.764842|   -2.957744|   -4.559631|
|          81|   -5.014107|   -2.769586|   -2.959662|   -4.557861|
|          82|   -5.009682|   -2.768065|   -2.954029|   -4.554459|
|          83|   -4.996710|   -2.761044|   -2.942557|   -4.550910|
|          84|   -4.983359|   -2.751940|   -2.931734|   -4.547812|
|          85|   -4.971043|   -2.745754|   -2.926959|   -4.545631|
|          86|   -4.971511|   -2.744425|   -2.925642|   -4.543512|
|          87|   -4.975541|   -2.750305|   -2.937097|   -4.541780|
|          88|   -4.976857|   -2.761754|   -2.954963|   -4.540305|
|          89|   -4.978306|   -2.774713|   -2.974041|   -4.538914|
|          90|   -4.981606|   -2.785851|   -2.990630|   -4.537322|
|          91|   -4.984531|   -2.796630|   -3.003085|   -4.535385|
|          92|   -4.988420|   -2.804692|   -3.008253|   -4.533451|
|          93|   -4.991134|   -2.810684|   -3.012018|   -4.531046|
|          94|   -4.990198|   -2.816206|   -3.016005|   -4.527450|
|          95|   -4.988929|   -2.822604|   -3.014740|   -4.522941|
|          96|   -4.984552|   -2.826844|   -3.015780|   -4.518186|
|          97|   -4.978462|   -2.829138|   -3.016949|   -4.513768|
|          98|   -4.967823|   -2.830524|   -3.018955|   -4.510068|
|          99|   -4.958681|   -2.831381|   -3.019160|   -4.506191|
|         100|   -4.953860|   -2.832899|   -3.014885|   -4.501982|
|         101|   -4.949228|   -2.836791|   -3.006654|   -4.498437|
|         102|   -4.944685|   -2.836963|   -2.998257|   -4.495861|
|         103|   -4.939051|   -2.839368|   -2.990337|   -4.492180|
|         104|   -4.933461|   -2.840539|   -2.977181|   -4.487381|
|         105|   -4.927263|   -2.841034|   -2.964789|   -4.481812|
|         106|   -4.920345|   -2.838639|   -2.954378|   -4.476689|
|         107|   -4.911638|   -2.833285|   -2.943698|   -4.473033|
|         108|   -4.903569|   -2.826878|   -2.932890|   -4.469288|
|         109|   -4.894362|   -2.822981|   -2.921719|   -4.464124|
|         110|   -4.892518|   -2.818569|   -2.908173|   -4.459704|
|         111|   -4.882380|   -2.812542|   -2.899135|   -4.456160|
|         112|   -4.871979|   -2.804810|   -2.888204|   -4.452172|
|         113|   -4.862785|   -2.797545|   -2.876098|   -4.447931|
|         114|   -4.858030|   -2.792961|   -2.866204|   -4.444016|
|         115|   -4.856393|   -2.790473|   -2.860559|   -4.440743|
|         116|   -4.854019|   -2.786437|   -2.857050|   -4.437372|
|         117|   -4.854160|   -2.786138|   -2.853991|   -4.433475|
|         118|   -4.853846|   -2.785469|   -2.851517|   -4.429516|
|         119|   -4.849676|   -2.781926|   -2.850326|   -4.425508|
|         120|   -4.843008|   -2.775502|   -2.848639|   -4.421305|
|         121|   -4.834276|   -2.766964|   -2.844184|   -4.417303|
|         122|   -4.827042|   -2.757495|   -2.839099|   -4.413957|
|         123|   -4.825348|   -2.749564|   -2.835711|   -4.411296|
|         124|   -4.827375|   -2.746052|   -2.834772|   -4.408998|
|         125|   -4.830181|   -2.747500|   -2.834274|   -4.406145|
|         126|   -4.837245|   -2.752980|   -2.835339|   -4.402729|
|         127|   -4.842405|   -2.758851|   -2.838193|   -4.400228|
|         128|   -4.843971|   -2.757539|   -2.840841|   -4.397511|
|         129|   -4.844492|   -2.753797|   -2.842976|   -4.394317|
|         130|   -4.843223|   -2.751180|   -2.843789|   -4.391021|
|         131|   -4.837926|   -2.744101|   -2.843738|   -4.387941|
|         132|   -4.836567|   -2.737156|   -2.838682|   -4.385555|
|         133|   -4.841305|   -2.734330|   -2.832959|   -4.382969|
|         134|   -4.846384|   -2.732826|   -2.828051|   -4.380295|
|         135|   -4.855370|   -2.732958|   -2.822760|   -4.377751|
|         136|   -4.865538|   -2.735549|   -2.820230|   -4.374846|
|         137|   -4.872156|   -2.734269|   -2.815340|   -4.371789|
|         138|   -4.878710|   -2.730143|   -2.809753|   -4.368280|
|         139|   -4.885103|   -2.731841|   -2.808772|   -4.365070|
|         140|   -4.887362|   -2.737002|   -2.811503|   -4.362106|
|         141|   -4.890878|   -2.734224|   -2.814174|   -4.359134|
|         142|   -4.896450|   -2.735116|   -2.816692|   -4.356058|
|         143|   -4.900340|   -2.735363|   -2.817929|   -4.352865|
|         144|   -4.902531|   -2.733561|   -2.819755|   -4.349551|
|         145|   -4.902694|   -2.729511|   -2.820997|   -4.346304|
|         146|   -4.902457|   -2.725342|   -2.821993|   -4.343325|
|         147|   -4.902250|   -2.722358|   -2.824249|   -4.340643|
|         148|   -4.902078|   -2.720190|   -2.826772|   -4.338127|
|         149|   -4.901838|   -2.718003|   -2.827829|   -4.335794|
|         150|   -4.901945|   -2.714805|   -2.828101|   -4.333706|
|         151|   -4.902127|   -2.711190|   -2.828154|   -4.331930|
|         152|   -4.903018|   -2.708017|   -2.827619|   -4.330632|
|         153|   -4.904095|   -2.702692|   -2.824944|   -4.329638|
|         154|   -4.907127|   -2.695622|   -2.823980|   -4.328762|
|         155|   -4.909895|   -2.691209|   -2.825392|   -4.327863|
|         156|   -4.914838|   -2.691813|   -2.828286|   -4.326924|
|         157|   -4.918706|   -2.692406|   -2.831407|   -4.325960|
|         158|   -4.922047|   -2.691925|   -2.833925|   -4.325055|
|         159|   -4.925507|   -2.690099|   -2.835902|   -4.324218|
|         160|   -4.928592|   -2.687244|   -2.838940|   -4.323473|
|         161|   -4.931644|   -2.683981|   -2.842836|   -4.322820|
|         162|   -4.934124|   -2.681168|   -2.846667|   -4.322229|
|         163|   -4.936936|   -2.679600|   -2.850113|   -4.321643|
|         164|   -4.939941|   -2.679242|   -2.854459|   -4.321049|
|         165|   -4.942756|   -2.679334|   -2.859621|   -4.320528|
|         166|   -4.945670|   -2.679479|   -2.865084|   -4.320158|
|         167|   -4.948533|   -2.679714|   -2.870586|   -4.319900|
|         168|   -4.951282|   -2.680291|   -2.876124|   -4.319756|
|         169|   -4.953870|   -2.681405|   -2.881127|   -4.319720|
|         170|   -4.956507|   -2.682598|   -2.885695|   -4.319859|
|         171|   -4.959351|   -2.683715|   -2.890447|   -4.320150|
|         172|   -4.962001|   -2.684570|   -2.894973|   -4.320599|
|         173|   -4.964643|   -2.684913|   -2.899533|   -4.321190|
|         174|   -4.967371|   -2.685140|   -2.904692|   -4.321892|
|         175|   -4.970360|   -2.686115|   -2.910326|   -4.322676|
|         176|   -4.973338|   -2.687841|   -2.916584|   -4.323591|
|         177|   -4.976136|   -2.689589|   -2.923408|   -4.324690|
|         178|   -4.979244|   -2.691172|   -2.930455|   -4.325918|
|         179|   -4.982483|   -2.692629|   -2.937991|   -4.327298|
|         180|   -4.985788|   -2.693945|   -2.945212|   -4.328835|
|         181|   -4.989382|   -2.695534|   -2.953069|   -4.330480|
|         182|   -4.993183|   -2.697079|   -2.960980|   -4.332270|
|         183|   -4.997478|   -2.698596|   -2.969180|   -4.334181|
|         184|   -5.001593|   -2.700148|   -2.977948|   -4.336191|
|         185|   -5.006151|   -2.701580|   -2.986977|   -4.338347|
|         186|   -5.010636|   -2.703359|   -2.996510|   -4.340519|
|         187|   -5.015116|   -2.704998|   -3.006190|   -4.342832|
|         188|   -5.020087|   -2.706704|   -3.016436|   -4.345234|
|         189|   -5.024985|   -2.708768|   -3.027042|   -4.347705|
|         190|   -5.029838|   -2.710805|   -3.037992|   -4.350261|
|         191|   -5.035082|   -2.713012|   -3.048995|   -4.352956|
|         192|   -5.040424|   -2.715570|   -3.059491|   -4.355713|
|         193|   -5.045496|   -2.718025|   -3.069964|   -4.358551|
|         194|   -5.050839|   -2.720118|   -3.080425|   -4.361519|
|         195|   -5.056403|   -2.722171|   -3.090409|   -4.364588|
|         196|   -5.061878|   -2.724255|   -3.099254|   -4.367697|
|         197|   -5.067237|   -2.726236|   -3.108322|   -4.370878|
|         198|   -5.072768|   -2.728293|   -3.117960|   -4.374157|
|         199|   -5.078601|   -2.731054|   -3.128408|   -4.377492|
|         200|   -5.084571|   -2.734309|   -3.138730|   -4.380915|
|         201|   -5.090232|   -2.737696|   -3.149054|   -4.384416|
|         202|   -5.095889|   -2.741002|   -3.159480|   -4.387988|
|         203|   -5.101688|   -2.744153|   -3.169109|   -4.391644|
|         204|   -5.107412|   -2.747327|   -3.178732|   -4.395384|
|         205|   -5.113041|   -2.750510|   -3.187650|   -4.399216|
|         206|   -5.118693|   -2.753754|   -3.196208|   -4.403150|
|         207|   -5.124317|   -2.757058|   -3.203754|   -4.407165|
|         208|   -5.129895|   -2.760413|   -3.210284|   -4.411282|
|         209|   -5.135443|   -2.763878|   -3.215781|   -4.415472|
|         210|   -5.140862|   -2.767449|   -3.220239|   -4.419762|
|         211|   -5.146253|   -2.771147|   -3.223875|   -4.424127|
|         212|   -5.151309|   -2.775005|   -3.226503|   -4.428556|
|         213|   -5.156309|   -2.778999|   -3.228057|   -4.433140|
|         214|   -5.161474|   -2.783200|   -3.228647|   -4.437784|
|         215|   -5.166355|   -2.787618|   -3.228607|   -4.442501|
|         216|   -5.171115|   -2.792131|   -3.227742|   -4.447294|
|         217|   -5.175739|   -2.796772|   -3.226101|   -4.452185|
|         218|   -5.180349|   -2.801505|   -3.223661|   -4.457133|
|         219|   -5.184846|   -2.806354|   -3.220675|   -4.462173|
|         220|   -5.189318|   -2.811282|   -3.216607|   -4.467238|
|         221|   -5.193867|   -2.816215|   -3.211766|   -4.472300|
|         222|   -5.198195|   -2.821241|   -3.206100|   -4.477411|
|         223|   -5.202333|   -2.826371|   -3.199857|   -4.482540|
|         224|   -5.206164|   -2.831644|   -3.193461|   -4.487676|
|         225|   -5.209933|   -2.837099|   -3.187205|   -4.492831|
|         226|   -5.213398|   -2.842838|   -3.181091|   -4.497961|
|         227|   -5.216817|   -2.848769|   -3.174741|   -4.503006|
|         228|   -5.220717|   -2.854742|   -3.168999|   -4.507930|
|         229|   -5.224349|   -2.860933|   -3.163634|   -4.512735|
|         230|   -5.227440|   -2.867229|   -3.157955|   -4.517392|
|         231|   -5.230114|   -2.873514|   -3.152105|   -4.521812|
|         232|   -5.232209|   -2.879768|   -3.146268|   -4.526009|
|         233|   -5.233786|   -2.885988|   -3.140586|   -4.529938|
|         234|   -5.234771|   -2.892215|   -3.135017|   -4.533485|
|         235|   -5.234983|   -2.898384|   -3.129655|   -4.536654|
|         236|   -5.234480|   -2.904441|   -3.124593|   -4.539362|
|         237|   -5.233353|   -2.910364|   -3.119820|   -4.541553|
|         238|   -5.231501|   -2.916095|   -3.115377|   -4.543164|
|         239|   -5.229171|   -2.921566|   -3.110915|   -4.544156|
|         240|   -5.226165|   -2.926784|   -3.106923|   -4.544371|
|         241|   -5.222586|   -2.931660|   -3.103307|   -4.543689|
|         242|   -5.217544|   -2.936171|   -3.100088|   -4.542275|
|         243|   -5.211429|   -2.940135|   -3.097237|   -4.540162|
|         244|   -5.204289|   -2.943546|   -3.094839|   -4.537458|
|         245|   -5.196096|   -2.946311|   -3.092858|   -4.534177|
|         246|   -5.186991|   -2.948304|   -3.091249|   -4.530468|
|         247|   -5.176716|   -2.949493|   -3.090062|   -4.526382|
|         248|   -5.165467|   -2.949819|   -3.089115|   -4.522050|
|         249|   -5.152396|   -2.949114|   -3.088398|   -4.517776|
|         250|   -5.137081|   -2.946826|   -3.088059|   -4.514323|
|         251|   -5.120751|   -2.943636|   -3.087934|   -4.511529|
|         252|   -5.103988|   -2.939778|   -3.087263|   -4.509445|
|         253|   -5.087874|   -2.935624|   -3.087116|   -4.508112|
|         254|   -5.071530|   -2.931368|   -3.087462|   -4.507434|
|         255|   -5.055178|   -2.926825|   -3.088329|   -4.507448|
|         256|   -5.038583|   -2.922069|   -3.089720|   -4.507912|
|         257|   -5.021777|   -2.917067|   -3.091455|   -4.508977|
|         258|   -5.004819|   -2.911913|   -3.093468|   -4.510485|
|         259|   -4.987898|   -2.906695|   -3.090423|   -4.512467|
|         260|   -4.973399|   -2.901755|   -3.083627|   -4.514428|
|         261|   -4.961293|   -2.897760|   -3.077948|   -4.516815|
|         262|   -4.949911|   -2.895073|   -3.072672|   -4.519158|
|         263|   -4.939648|   -2.893443|   -3.067900|   -4.521858|
|         264|   -4.930557|   -2.892885|   -3.063559|   -4.524614|
|         265|   -4.922567|   -2.893360|   -3.059896|   -4.527329|
|         266|   -4.915918|   -2.894936|   -3.056286|   -4.530252|
|         267|   -4.910665|   -2.897505|   -3.052239|   -4.533207|
|         268|   -4.906897|   -2.900957|   -3.049178|   -4.536230|
|         269|   -4.904166|   -2.905424|   -3.046788|   -4.539238|
|         270|   -4.902400|   -2.910679|   -3.045181|   -4.542286|
|         271|   -4.901471|   -2.916591|   -3.044191|   -4.545375|
|         272|   -4.901459|   -2.923036|   -3.043718|   -4.548688|
|         273|   -4.902079|   -2.929820|   -3.043731|   -4.551785|
|         274|   -4.903630|   -2.936882|   -3.044128|   -4.555212|
|         275|   -4.905916|   -2.944212|   -3.044765|   -4.558815|
|         276|   -4.908652|   -2.951775|   -3.045628|   -4.562340|
|         277|   -4.911709|   -2.959448|   -3.046769|   -4.566109|
|         278|   -4.914763|   -2.967053|   -3.048112|   -4.569715|
|         279|   -4.917836|   -2.974378|   -3.049603|   -4.572936|
|         280|   -4.920664|   -2.981298|   -3.051221|   -4.576750|
|         281|   -4.923234|   -2.987608|   -3.052853|   -4.580286|
|         282|   -4.925784|   -2.993450|   -3.039928|   -4.583412|
|         283|   -4.930033|   -2.996526|   -3.016885|   -4.587055|
|         284|   -4.935143|   -2.997235|   -2.991906|   -4.590854|
|         285|   -4.940687|   -2.997388|   -2.967173|   -4.594203|
|         286|   -4.947001|   -2.997364|   -2.946376|   -4.598016|
|         287|   -4.953861|   -2.998307|   -2.928466|   -4.601597|
|         288|   -4.961531|   -3.000174|   -2.913892|   -4.605131|
|         289|   -4.969558|   -3.002704|   -2.901405|   -4.608611|
|         290|   -4.977934|   -3.005199|   -2.892041|   -4.611924|
|         291|   -4.986184|   -3.007237|   -2.885303|   -4.614827|
|         292|   -4.994103|   -3.008502|   -2.881319|   -4.617375|
|         293|   -5.001438|   -3.008722|   -2.879145|   -4.619479|
|         294|   -5.008218|   -3.007492|   -2.879306|   -4.620789|
|         295|   -5.014275|   -3.005097|   -2.881286|   -4.621869|
|         296|   -5.019701|   -3.001473|   -2.886393|   -4.622080|
|         297|   -5.024364|   -2.996623|   -2.877188|   -4.622082|
|         298|   -5.033014|   -2.989135|   -2.868809|   -4.621965|
|         299|   -5.042343|   -2.982533|   -2.864735|   -4.621703|
|         300|   -5.051395|   -2.977089|   -2.860105|   -4.621025|
|         301|   -5.060894|   -2.971375|   -2.859541|   -4.619753|
|         302|   -5.069148|   -2.965708|   -2.861275|   -4.617721|
|         303|   -5.076633|   -2.959417|   -2.865383|   -4.615012|
|         304|   -5.083221|   -2.952513|   -2.870548|   -4.611429|
|         305|   -5.089333|   -2.945023|   -2.876133|   -4.607301|
|         306|   -5.095179|   -2.936976|   -2.881094|   -4.602470|
|         307|   -5.101099|   -2.928470|   -2.885959|   -4.597106|
|         308|   -5.107095|   -2.919565|   -2.890183|   -4.591518|
|         309|   -5.113278|   -2.910367|   -2.894731|   -4.585470|
|         310|   -5.119233|   -2.900958|   -2.899868|   -4.579111|
|         311|   -5.124777|   -2.891271|   -2.905938|   -4.572530|
|         312|   -5.129777|   -2.881360|   -2.912349|   -4.565774|
|         313|   -5.134393|   -2.871026|   -2.918930|   -4.558781|
|         314|   -5.138505|   -2.860140|   -2.926995|   -4.551690|
|         315|   -5.141570|   -2.848046|   -2.933298|   -4.544546|
|         316|   -5.144486|   -2.834718|   -2.940554|   -4.537226|
|         317|   -5.146155|   -2.821276|   -2.944880|   -4.529996|
|         318|   -5.147906|   -2.808713|   -2.943412|   -4.522961|
|         319|   -5.150878|   -2.799184|   -2.943567|   -4.515739|
|         320|   -5.152251|   -2.792767|   -2.935185|   -4.508803|
|         321|   -5.156850|   -2.784829|   -2.930557|   -4.501610|
|         322|   -5.158179|   -2.774879|   -2.916376|   -4.494665|
|         323|   -5.160314|   -2.763701|   -2.901374|   -4.487678|
|         324|   -5.160245|   -2.752866|   -2.884551|   -4.480572|
|         325|   -5.156448|   -2.741084|   -2.866797|   -4.473388|
|         326|   -5.148519|   -2.729234|   -2.846749|   -4.466174|
|         327|   -5.136216|   -2.715138|   -2.826415|   -4.458951|
|         328|   -5.119424|   -2.698782|   -2.806502|   -4.451830|
|         329|   -5.100855|   -2.684020|   -2.787368|   -4.445090|
|         330|   -5.085834|   -2.673969|   -2.767316|   -4.439096|
|         331|   -5.083611|   -2.671690|   -2.754003|   -4.433236|
|         332|   -5.081749|   -2.675533|   -2.751317|   -4.427604|
|         333|   -5.078834|   -2.679687|   -2.753092|   -4.422449|
|         334|   -5.079847|   -2.682635|   -2.757765|   -4.417475|
|         335|   -5.078428|   -2.686372|   -2.767547|   -4.412746|
|         336|   -5.074249|   -2.688494|   -2.780603|   -4.408455|
|         337|   -5.071677|   -2.689289|   -2.796297|   -4.404337|
|         338|   -5.067371|   -2.690787|   -2.810882|   -4.400378|
|         339|   -5.059785|   -2.693336|   -2.820869|   -4.396830|
|         340|   -5.054846|   -2.695132|   -2.829273|   -4.393524|
|         341|   -5.048410|   -2.696796|   -2.840973|   -4.390481|
|         342|   -5.039357|   -2.697045|   -2.852331|   -4.387953|
|         343|   -5.034164|   -2.696548|   -2.863091|   -4.385780|
|         344|   -5.031644|   -2.696948|   -2.874439|   -4.383813|
|         345|   -5.028031|   -2.697576|   -2.883129|   -4.382222|
|         346|   -5.026000|   -2.697673|   -2.889114|   -4.380902|
|         347|   -5.024126|   -2.698086|   -2.895196|   -4.379814|
|         348|   -5.020811|   -2.699048|   -2.902669|   -4.378983|
|         349|   -5.015883|   -2.700205|   -2.910587|   -4.378609|
|         350|   -5.014589|   -2.701717|   -2.919362|   -4.378360|
|         351|   -5.011950|   -2.704780|   -2.930824|   -4.378353|
|         352|   -5.007599|   -2.708455|   -2.943357|   -4.378725|
|         353|   -5.003982|   -2.712698|   -2.957543|   -4.379446|
|         354|   -5.001623|   -2.717275|   -2.972969|   -4.380556|
|         355|   -5.000754|   -2.721257|   -2.987611|   -4.382012|
|         356|   -5.002449|   -2.724797|   -3.001285|   -4.383696|
|         357|   -5.004766|   -2.728330|   -3.014023|   -4.385587|
|         358|   -5.007209|   -2.732205|   -3.025719|   -4.387730|
|         359|   -5.009547|   -2.736933|   -3.035758|   -4.390196|
|         360|   -5.011377|   -2.742217|   -3.043498|   -4.393201|
|         361|   -5.012315|   -2.747498|   -3.048576|   -4.396941|
|         362|   -5.012300|   -2.752438|   -3.051162|   -4.401653|
|         363|   -5.011423|   -2.756744|   -3.051842|   -4.407417|
|         364|   -5.009748|   -2.759982|   -3.050173|   -4.414180|
|         365|   -5.008611|   -2.761690|   -3.046373|   -4.421673|
|         366|   -5.008470|   -2.762181|   -3.042165|   -4.429518|
|         367|   -5.008423|   -2.762404|   -3.038282|   -4.437401|
|         368|   -5.008275|   -2.763044|   -3.034600|   -4.445069|
|         369|   -5.008304|   -2.764505|   -3.030162|   -4.452374|
|         370|   -5.009188|   -2.766854|   -3.025430|   -4.459219|
|         371|   -5.010784|   -2.770213|   -3.018110|   -4.465719|
|         372|   -5.014147|   -2.774013|   -3.006801|   -4.471886|
|         373|   -5.020472|   -2.778182|   -3.005309|   -4.477345|
|         374|   -5.021099|   -2.783911|   -3.008129|   -4.482841|
|         375|   -5.016913|   -2.788187|   -3.003500|   -4.488842|
|         376|   -5.016662|   -2.789966|   -2.998544|   -4.494703|
|         377|   -5.018284|   -2.791984|   -2.995143|   -4.500461|
|         378|   -5.019501|   -2.794624|   -2.992996|   -4.506203|
|         379|   -5.021197|   -2.797715|   -2.988498|   -4.511925|
|         380|   -5.024771|   -2.800685|   -2.983720|   -4.517386|
|         381|   -5.028668|   -2.804110|   -2.978850|   -4.522558|
|         382|   -5.032231|   -2.807863|   -2.974183|   -4.527467|
|         383|   -5.035768|   -2.811452|   -2.967795|   -4.532121|
|         384|   -5.039909|   -2.814274|   -2.960604|   -4.536418|
|         385|   -5.044218|   -2.816824|   -2.952983|   -4.540332|
|         386|   -5.048000|   -2.819199|   -2.944654|   -4.543850|
|         387|   -5.051109|   -2.821519|   -2.936129|   -4.547001|
|         388|   -5.053610|   -2.823626|   -2.927876|   -4.549821|
|         389|   -5.055659|   -2.825314|   -2.917626|   -4.552338|
|         390|   -5.058228|   -2.826195|   -2.906455|   -4.554487|
|         391|   -5.061138|   -2.826603|   -2.895478|   -4.556337|
|         392|   -5.063834|   -2.826805|   -2.885961|   -4.557961|
|         393|   -5.066337|   -2.826800|   -2.877471|   -4.559437|
|         394|   -5.069381|   -2.827086|   -2.871437|   -4.560817|
|         395|   -5.072279|   -2.827888|   -2.870204|   -4.562197|
|         396|   -5.074567|   -2.828871|   -2.871994|   -4.563678|
|         397|   -5.076553|   -2.830623|   -2.875049|   -4.565335|
|         398|   -5.078536|   -2.833137|   -2.877033|   -4.567251|
|         399|   -5.081239|   -2.835764|   -2.878893|   -4.569298|
|         400|   -5.084421|   -2.838821|   -2.881755|   -4.571481|
|         401|   -5.087206|   -2.841894|   -2.885461|   -4.573800|
|         402|   -5.089759|   -2.844674|   -2.889277|   -4.576224|
|         403|   -5.092264|   -2.847284|   -2.892941|   -4.578710|
|         404|   -5.094696|   -2.849799|   -2.892903|   -4.581256|
|         405|   -5.098399|   -2.851894|   -2.887239|   -4.583626|
|         406|   -5.104015|   -2.853910|   -2.882167|   -4.585491|
|         407|   -5.109339|   -2.856217|   -2.878011|   -4.586954|
|         408|   -5.113390|   -2.858350|   -2.874053|   -4.588039|
|         409|   -5.116787|   -2.860099|   -2.870066|   -4.588696|
|         410|   -5.119723|   -2.861054|   -2.865577|   -4.588899|
|         411|   -5.121920|   -2.861133|   -2.860595|   -4.588523|
|         412|   -5.123346|   -2.860301|   -2.855291|   -4.587569|
|         413|   -5.122976|   -2.858741|   -2.849608|   -4.585816|
|         414|   -5.120471|   -2.856542|   -2.843528|   -4.583360|
|         415|   -5.116252|   -2.853151|   -2.837067|   -4.580050|
|         416|   -5.109183|   -2.846448|   -2.830761|   -4.576596|
|         417|   -5.100943|   -2.836350|   -2.825229|   -4.573091|
|         418|   -5.092906|   -2.826155|   -2.819571|   -4.569742|
|         419|   -5.085531|   -2.815490|   -2.814110|   -4.567111|
|         420|   -5.074922|   -2.803846|   -2.809788|   -4.565545|
|         421|   -5.062462|   -2.789790|   -2.803971|   -4.563966|
|         422|   -5.052879|   -2.774565|   -2.797069|   -4.561927|
|         423|   -5.047590|   -2.762056|   -2.792191|   -4.560619|
|         424|   -5.038622|   -2.747816|   -2.786103|   -4.562328|
|         425|   -5.032621|   -2.729099|   -2.778251|   -4.567891|
|         426|   -5.033921|   -2.720460|   -2.772976|   -4.575502|
|         427|   -5.045255|   -2.723311|   -2.769894|   -4.582456|
|         428|   -5.066727|   -2.726550|   -2.769947|   -4.588560|
|         429|   -5.084889|   -2.722695|   -2.768847|   -4.593791|
|         430|   -5.106205|   -2.724692|   -2.766742|   -4.597908|
|         431|   -5.123045|   -2.726091|   -2.763449|   -4.601220|
|         432|   -5.134337|   -2.723682|   -2.758194|   -4.603894|
|         433|   -5.142054|   -2.718424|   -2.752215|   -4.606217|
|         434|   -5.146229|   -2.711269|   -2.747831|   -4.608836|
|         435|   -5.147787|   -2.704074|   -2.747272|   -4.612039|
|         436|   -5.148086|   -2.698303|   -2.749189|   -4.615375|
|         437|   -5.150539|   -2.694267|   -2.750896|   -4.618165|
|         438|   -5.156278|   -2.690681|   -2.752773|   -4.620606|
|         439|   -5.163144|   -2.686285|   -2.756638|   -4.623481|
|         440|   -5.169590|   -2.681472|   -2.762553|   -4.627302|
|         441|   -5.176713|   -2.677379|   -2.769721|   -4.631857|
|         442|   -5.185943|   -2.674168|   -2.777353|   -4.636656|
|         443|   -5.196811|   -2.671375|   -2.785257|   -4.641509|
|         444|   -5.208076|   -2.668912|   -2.793996|   -4.646341|
|         445|   -5.219254|   -2.667268|   -2.803258|   -4.651127|
|         446|   -5.230370|   -2.666561|   -2.812855|   -4.655858|
|         447|   -5.241597|   -2.666370|   -2.823093|   -4.660538|
|         448|   -5.252852|   -2.666289|   -2.834246|   -4.665193|
|         449|   -5.264001|   -2.665925|   -2.845981|   -4.669856|
|         450|   -5.275079|   -2.665179|   -2.858041|   -4.674569|
|         451|   -5.286213|   -2.664144|   -2.870414|   -4.679340|
|         452|   -5.297386|   -2.662713|   -2.883319|   -4.684176|
|         453|   -5.308626|   -2.660967|   -2.896726|   -4.689078|
|         454|   -5.319948|   -2.659116|   -2.910456|   -4.694048|
|         455|   -5.331269|   -2.657219|   -2.924559|   -4.699091|
|         456|   -5.342614|   -2.655340|   -2.939259|   -4.704179|
|         457|   -5.354027|   -2.653531|   -2.954597|   -4.709288|
|         458|   -5.365447|   -2.651840|   -2.970509|   -4.714415|
|         459|   -5.376729|   -2.650296|   -2.986933|   -4.719545|
|         460|   -5.387812|   -2.648944|   -3.003886|   -4.724669|
|         461|   -5.398740|   -2.647868|   -3.021433|   -4.729782|
|         462|   -5.409546|   -2.647133|   -3.039589|   -4.734836|
|         463|   -5.420149|   -2.646774|   -3.058363|   -4.739878|
|         464|   -5.430489|   -2.646785|   -3.077777|   -4.744873|
|         465|   -5.440432|   -2.647181|   -3.097873|   -4.749762|
|         466|   -5.449857|   -2.647967|   -3.118652|   -4.754639|
|         467|   -5.458752|   -2.649123|   -3.140035|   -4.759427|
|         468|   -5.467056|   -2.650614|   -3.161901|   -4.764072|
|         469|   -5.474695|   -2.652380|   -3.184001|   -4.768641|
|         470|   -5.481547|   -2.654398|   -3.205988|   -4.773045|
|         471|   -5.487502|   -2.656644|   -3.227411|   -4.777262|
|         472|   -5.492432|   -2.659091|   -3.247749|   -4.781479|
|         473|   -5.496245|   -2.661693|   -3.266381|   -4.785563|
|         474|   -5.498868|   -2.664424|   -3.282581|   -4.789458|
|         475|   -5.500150|   -2.667249|   -3.295616|   -4.793123|
|         476|   -5.500002|   -2.670133|   -3.304778|   -4.796715|
|         477|   -5.498408|   -2.673040|   -3.309576|   -4.800043|
|         478|   -5.495404|   -2.675945|   -3.309797|   -4.803088|
|         479|   -5.491014|   -2.678833|   -3.305540|   -4.805806|
|         480|   -5.485286|   -2.681700|   -3.297149|   -4.808146|
|         481|   -5.478267|   -2.684542|   -3.285213|   -4.810086|
|         482|   -5.470016|   -2.687352|   -3.270428|   -4.811544|
|         483|   -5.460623|   -2.690143|   -3.253537|   -4.812440|
|         484|   -5.450154|   -2.692905|   -3.235236|   -4.812689|
|         485|   -5.438701|   -2.695653|   -3.216135|   -4.812215|
|         486|   -5.426336|   -2.698375|   -3.196728|   -4.810935|
|         487|   -5.413209|   -2.701067|   -3.177412|   -4.808803|
|         488|   -5.399455|   -2.703705|   -3.158480|   -4.805775|
|         489|   -5.385113|   -2.706277|   -3.140119|   -4.801836|
|         490|   -5.370258|   -2.708771|   -3.121910|   -4.796933|
|         491|   -5.355226|   -2.711171|   -3.103512|   -4.791025|
|         492|   -5.340105|   -2.713521|   -3.086161|   -4.784054|
|         493|   -5.324501|   -2.715795|   -3.069253|   -4.776032|
|         494|   -5.308398|   -2.717961|   -3.053207|   -4.766972|
|         495|   -5.291742|   -2.719968|   -3.037948|   -4.756909|
|         496|   -5.274523|   -2.721753|   -3.023556|   -4.745907|
|         497|   -5.256730|   -2.723254|   -3.010014|   -4.734050|
|         498|   -5.238388|   -2.724407|   -2.997343|   -4.721447|
|         499|   -5.219530|   -2.725142|   -2.985546|   -4.708228|
|         500|   -5.200203|   -2.725388|   -2.974565|   -4.694545|
|         501|   -5.180496|   -2.725087|   -2.964211|   -4.680569|
|         502|   -5.160548|   -2.724213|   -2.954790|   -4.666462|
|         503|   -5.140345|   -2.722731|   -2.946193|   -4.652428|
|         504|   -5.119976|   -2.720610|   -2.938439|   -4.638636|
|         505|   -5.099543|   -2.717856|   -2.931486|   -4.625266|
|         506|   -5.079164|   -2.714519|   -2.925328|   -4.612485|
|         507|   -5.058962|   -2.710670|   -2.919946|   -4.600442|
|         508|   -5.039056|   -2.706412|   -2.915319|   -4.589274|
|         509|   -5.019538|   -2.701889|   -2.911426|   -4.579072|
|         510|   -5.000516|   -2.697229|   -2.908249|   -4.569924|
|         511|   -4.982124|   -2.692588|   -2.905798|   -4.561906|
|         512|   -4.964380|   -2.688122|   -2.904078|   -4.555054|
|         513|   -4.947397|   -2.684004|   -2.903078|   -4.549377|
|         514|   -4.931261|   -2.680409|   -2.902812|   -4.544870|
|         515|   -4.915992|   -2.677463|   -2.903242|   -4.541517|
|         516|   -4.901719|   -2.675320|   -2.904382|   -4.539268|
|         517|   -4.888508|   -2.674102|   -2.906015|   -4.538111|
|         518|   -4.876448|   -2.673905|   -2.908575|   -4.537966|
|         519|   -4.865516|   -2.674847|   -2.912009|   -4.539008|
|         520|   -4.855796|   -2.676952|   -2.916447|   -4.541131|
|         521|   -4.847291|   -2.680290|   -2.921914|   -4.544209|
|         522|   -4.840147|   -2.684891|   -2.928484|   -4.548205|
|         523|   -4.834313|   -2.690805|   -2.936200|   -4.553024|
|         524|   -4.829790|   -2.698057|   -2.945109|   -4.558605|
|         525|   -4.826579|   -2.706676|   -2.955267|   -4.564771|
|         526|   -4.824664|   -2.716649|   -2.966670|   -4.571499|
|         527|   -4.824130|   -2.728040|   -2.975062|   -4.578856|
|         528|   -4.826338|   -2.740417|   -2.979336|   -4.586830|
|         529|   -4.831318|   -2.753761|   -2.984947|   -4.595600|
|         530|   -4.837571|   -2.768795|   -2.990623|   -4.604869|
|         531|   -4.845015|   -2.784898|   -2.996550|   -4.614508|
|         532|   -4.853110|   -2.801758|   -3.002442|   -4.624392|
|         533|   -4.861682|   -2.819084|   -3.008385|   -4.634359|
|         534|   -4.870512|   -2.836753|   -3.014293|   -4.644341|
|         535|   -4.879725|   -2.854669|   -3.015017|   -4.654389|
|         536|   -4.889855|   -2.872162|   -3.001995|   -4.664494|
|         537|   -4.901383|   -2.887650|   -2.991257|   -4.674724|
|         538|   -4.912251|   -2.903488|   -2.979407|   -4.684764|
|         539|   -4.923294|   -2.919183|   -2.967823|   -4.694377|
|         540|   -4.933776|   -2.934524|   -2.955953|   -4.703403|
|         541|   -4.943651|   -2.949299|   -2.944430|   -4.711787|
|         542|   -4.952863|   -2.963409|   -2.933203|   -4.719493|
|         543|   -4.961223|   -2.976761|   -2.922383|   -4.726590|
|         544|   -4.969002|   -2.989131|   -2.912070|   -4.732993|
|         545|   -4.976342|   -3.000520|   -2.902352|   -4.738795|
|         546|   -4.983035|   -3.010791|   -2.893289|   -4.743951|
|         547|   -4.989504|   -3.019767|   -2.884933|   -4.748478|
|         548|   -4.995532|   -3.027526|   -2.877305|   -4.752417|
|         549|   -5.001170|   -3.033852|   -2.870345|   -4.755687|
|         550|   -5.006398|   -3.038706|   -2.864075|   -4.758397|
|         551|   -5.011353|   -3.042221|   -2.858488|   -4.760510|
|         552|   -5.016161|   -3.044547|   -2.853566|   -4.762037|
|         553|   -5.020620|   -3.045593|   -2.849279|   -4.763045|
|         554|   -5.024824|   -3.045220|   -2.845538|   -4.763448|
|         555|   -5.028813|   -3.043549|   -2.842290|   -4.763361|
|         556|   -5.032735|   -3.040604|   -2.839526|   -4.762862|
|         557|   -5.036437|   -3.036504|   -2.837170|   -4.761828|
|         558|   -5.039957|   -3.031154|   -2.835228|   -4.760452|
|         559|   -5.043299|   -3.024689|   -2.833668|   -4.758760|
|         560|   -5.046513|   -3.017124|   -2.832459|   -4.756908|
|         561|   -5.050154|   -3.008090|   -2.813526|   -4.755338|
|         562|   -5.058149|   -2.996934|   -2.799913|   -4.754079|
|         563|   -5.065144|   -2.987565|   -2.787378|   -4.752902|
|         564|   -5.072435|   -2.978520|   -2.778420|   -4.751440|
|         565|   -5.078723|   -2.969099|   -2.771199|   -4.749520|
|         566|   -5.084440|   -2.958883|   -2.765875|   -4.747028|
|         567|   -5.089746|   -2.947836|   -2.759884|   -4.743906|
|         568|   -5.095182|   -2.936160|   -2.754463|   -4.740185|
|         569|   -5.100352|   -2.924207|   -2.750533|   -4.735793|
|         570|   -5.105002|   -2.912173|   -2.747871|   -4.730695|
|         571|   -5.109214|   -2.900018|   -2.745942|   -4.724989|
|         572|   -5.113173|   -2.887654|   -2.743259|   -4.718696|
|         573|   -5.117217|   -2.875173|   -2.742133|   -4.711896|
|         574|   -5.120806|   -2.862775|   -2.741424|   -4.704615|
|         575|   -5.124201|   -2.850371|   -2.741914|   -4.696957|
|         576|   -5.127215|   -2.837986|   -2.743301|   -4.688938|
|         577|   -5.129944|   -2.825556|   -2.745383|   -4.680667|
|         578|   -5.132474|   -2.813064|   -2.747937|   -4.672159|
|         579|   -5.134845|   -2.800464|   -2.751066|   -4.663513|
|         580|   -5.137012|   -2.787672|   -2.754133|   -4.654743|
|         581|   -5.139092|   -2.774539|   -2.757496|   -4.645869|
|         582|   -5.140954|   -2.760866|   -2.759053|   -4.636966|
|         583|   -5.143061|   -2.746664|   -2.758157|   -4.628072|
|         584|   -5.145347|   -2.731340|   -2.760040|   -4.618967|
|         585|   -5.146687|   -2.714582|   -2.752491|   -4.610087|
|         586|   -5.150169|   -2.695789|   -2.747967|   -4.601020|
|         587|   -5.152070|   -2.677358|   -2.742438|   -4.591840|
|         588|   -5.152780|   -2.660148|   -2.733026|   -4.582717|
|         589|   -5.154212|   -2.644920|   -2.723082|   -4.573504|
|         590|   -5.155209|   -2.633524|   -2.715067|   -4.564206|
|         591|   -5.154147|   -2.626499|   -2.711062|   -4.554964|
|         592|   -5.151519|   -2.619691|   -2.719406|   -4.545409|
|         593|   -5.145601|   -2.609337|   -2.719338|   -4.536252|
|         594|   -5.141566|   -2.598750|   -2.718640|   -4.527069|
|         595|   -5.135633|   -2.590460|   -2.719557|   -4.518057|
|         596|   -5.129136|   -2.582545|   -2.720333|   -4.509407|
|         597|   -5.123789|   -2.574920|   -2.720044|   -4.500850|
|         598|   -5.115943|   -2.567408|   -2.717570|   -4.492470|
|         599|   -5.104748|   -2.558776|   -2.713305|   -4.484402|
|         600|   -5.092064|   -2.549837|   -2.706475|   -4.476792|
|         601|   -5.078815|   -2.541905|   -2.697730|   -4.469679|
|         602|   -5.067119|   -2.535464|   -2.689909|   -4.463277|
|         603|   -5.060891|   -2.531526|   -2.686509|   -4.457333|
|         604|   -5.057409|   -2.530483|   -2.688136|   -4.451564|
|         605|   -5.051413|   -2.530380|   -2.693281|   -4.446060|
|         606|   -5.043838|   -2.529059|   -2.699635|   -4.441030|
|         607|   -5.037460|   -2.527472|   -2.707067|   -4.436284|
|         608|   -5.030680|   -2.526898|   -2.716062|   -4.431775|
|         609|   -5.021323|   -2.527224|   -2.726992|   -4.427629|
|         610|   -5.010717|   -2.526929|   -2.737570|   -4.424191|
|         611|   -5.007204|   -2.526241|   -2.745930|   -4.420836|
|         612|   -5.004374|   -2.526307|   -2.750767|   -4.417557|
|         613|   -4.998965|   -2.526491|   -2.750385|   -4.414558|
|         614|   -4.994404|   -2.526312|   -2.746045|   -4.411729|
|         615|   -4.990947|   -2.526535|   -2.740030|   -4.408988|
|         616|   -4.987153|   -2.527615|   -2.735123|   -4.406300|
|         617|   -4.982080|   -2.528825|   -2.732718|   -4.403762|
|         618|   -4.976872|   -2.529784|   -2.731463|   -4.401392|
|         619|   -4.972309|   -2.531163|   -2.732520|   -4.399023|
|         620|   -4.965756|   -2.533158|   -2.735433|   -4.396778|
|         621|   -4.957783|   -2.535215|   -2.738100|   -4.394839|
|         622|   -4.951858|   -2.537643|   -2.741263|   -4.392978|
|         623|   -4.945349|   -2.541063|   -2.747845|   -4.391227|
|         624|   -4.936637|   -2.544602|   -2.757804|   -4.389881|
|         625|   -4.930149|   -2.548445|   -2.769738|   -4.388688|
|         626|   -4.923377|   -2.552719|   -2.781716|   -4.387782|
|         627|   -4.916630|   -2.557548|   -2.792108|   -4.387156|
|         628|   -4.910232|   -2.562238|   -2.798330|   -4.387094|
|         629|   -4.907723|   -2.566575|   -2.800936|   -4.387502|
|         630|   -4.905816|   -2.571087|   -2.801473|   -4.388804|
|         631|   -4.903812|   -2.575392|   -2.799574|   -4.391413|
|         632|   -4.904606|   -2.578150|   -2.795792|   -4.394989|
|         633|   -4.902808|   -2.575222|   -2.790223|   -4.397423|
|         634|   -4.909094|   -2.570557|   -2.785409|   -4.399863|
|         635|   -4.925995|   -2.575985|   -2.784410|   -4.408172|
|         636|   -4.935409|   -2.598240|   -2.780924|   -4.418345|
|         637|   -4.931112|   -2.618712|   -2.770723|   -4.434222|
|         638|   -4.923455|   -2.620571|   -2.757017|   -4.454358|
|         639|   -4.913537|   -2.601773|   -2.743390|   -4.483334|
|         640|   -4.929801|   -2.580115|   -2.732461|   -4.512718|
|         641|   -4.964081|   -2.581489|   -2.725132|   -4.539976|
|         642|   -4.996139|   -2.604941|   -2.720993|   -4.566510|
|         643|   -5.015697|   -2.632748|   -2.718635|   -4.592190|
|         644|   -5.028928|   -2.652150|   -2.716476|   -4.615447|
|         645|   -5.039279|   -2.665427|   -2.713495|   -4.634987|
|         646|   -5.048106|   -2.677386|   -2.709202|   -4.650925|
|         647|   -5.055605|   -2.688978|   -2.703891|   -4.663814|
|         648|   -5.061662|   -2.699909|   -2.698000|   -4.674218|
|         649|   -5.066949|   -2.709673|   -2.691664|   -4.682886|
|         650|   -5.070991|   -2.717666|   -2.684849|   -4.690347|
|         651|   -5.074088|   -2.723515|   -2.677515|   -4.696991|
|         652|   -5.076273|   -2.727063|   -2.669734|   -4.703021|
|         653|   -5.077956|   -2.727960|   -2.661655|   -4.708567|
|         654|   -5.079213|   -2.726376|   -2.653600|   -4.713648|
|         655|   -5.080132|   -2.722481|   -2.645628|   -4.718282|
|         656|   -5.080673|   -2.716105|   -2.637616|   -4.722459|
|         657|   -5.081039|   -2.707203|   -2.629464|   -4.726096|
|         658|   -5.081108|   -2.696440|   -2.621514|   -4.729280|
|         659|   -5.081029|   -2.684541|   -2.613911|   -4.732597|
|         660|   -5.082354|   -2.671329|   -2.606794|   -4.735660|
|         661|   -5.083847|   -2.658042|   -2.600326|   -4.738323|
|         662|   -5.085811|   -2.645916|   -2.594513|   -4.740483|
|         663|   -5.088283|   -2.635633|   -2.589809|   -4.742195|
|         664|   -5.091164|   -2.626463|   -2.586639|   -4.743400|
|         665|   -5.093801|   -2.619652|   -2.584996|   -4.744601|
|         666|   -5.097440|   -2.613847|   -2.584289|   -4.745610|
|         667|   -5.101197|   -2.608534|   -2.584202|   -4.746516|
|         668|   -5.105229|   -2.604093|   -2.584814|   -4.747330|
|         669|   -5.109489|   -2.600484|   -2.586158|   -4.748119|
|         670|   -5.113917|   -2.597419|   -2.588021|   -4.748918|
|         671|   -5.118517|   -2.594358|   -2.590171|   -4.749752|
|         672|   -5.123273|   -2.590735|   -2.592363|   -4.750631|
|         673|   -5.128110|   -2.586094|   -2.594348|   -4.751533|
|         674|   -5.133004|   -2.580027|   -2.595749|   -4.752457|
|         675|   -5.137971|   -2.572419|   -2.596028|   -4.753442|
|         676|   -5.142986|   -2.563328|   -2.594545|   -4.754459|
|         677|   -5.148103|   -2.552859|   -2.590992|   -4.755486|
|         678|   -5.153252|   -2.541311|   -2.585261|   -4.756487|
|         679|   -5.158446|   -2.528957|   -2.577397|   -4.757406|
|         680|   -5.163650|   -2.516180|   -2.567567|   -4.758215|
|         681|   -5.168825|   -2.503379|   -2.556200|   -4.758882|
|         682|   -5.174002|   -2.490806|   -2.544030|   -4.759351|
|         683|   -5.179125|   -2.478799|   -2.531815|   -4.759660|
|         684|   -5.184244|   -2.467602|   -2.520387|   -4.759770|
|         685|   -5.189417|   -2.457497|   -2.510425|   -4.759727|
|         686|   -5.194673|   -2.448693|   -2.502312|   -4.759537|
|         687|   -5.200025|   -2.441249|   -2.496567|   -4.759233|
|         688|   -5.205505|   -2.435120|   -2.493089|   -4.758834|
|         689|   -5.211190|   -2.430384|   -2.492033|   -4.758287|
|         690|   -5.217018|   -2.426594|   -2.493175|   -4.757468|
|         691|   -5.222779|   -2.423716|   -2.496213|   -4.756159|
|         692|   -5.228123|   -2.421445|   -2.501145|   -4.754122|
|         693|   -5.232695|   -2.419524|   -2.507442|   -4.751005|
|         694|   -5.235639|   -2.417730|   -2.514746|   -4.746871|
|         695|   -5.236345|   -2.415898|   -2.522976|   -4.742344|
|         696|   -5.232410|   -2.413822|   -2.531580|   -4.737712|
|         697|   -5.224587|   -2.411383|   -2.540041|   -4.732925|
|         698|   -5.212747|   -2.408236|   -2.548422|   -4.726459|
|         699|   -5.201753|   -2.404314|   -2.557080|   -4.720020|
|         700|   -5.187894|   -2.400064|   -2.565545|   -4.712516|
|         701|   -5.179578|   -2.395656|   -2.573414|   -4.706716|
|         702|   -5.172401|   -2.391181|   -2.581670|   -4.703322|
|         703|   -5.164520|   -2.386613|   -2.589988|   -4.703865|
|         704|   -5.157631|   -2.382681|   -2.598578|   -4.706189|
|         705|   -5.151272|   -2.379327|   -2.606978|   -4.709627|
|         706|   -5.143975|   -2.375681|   -2.613210|   -4.714088|
|         707|   -5.138452|   -2.371325|   -2.618388|   -4.718645|
|         708|   -5.136738|   -2.367468|   -2.624526|   -4.722489|
|         709|   -5.138113|   -2.365309|   -2.632820|   -4.725674|
|         710|   -5.140623|   -2.363742|   -2.640542|   -4.729713|
|         711|   -5.140534|   -2.360297|   -2.645734|   -4.736636|
|         712|   -5.141901|   -2.356554|   -2.652865|   -4.746839|
|         713|   -5.143274|   -2.355179|   -2.662165|   -4.758399|
|         714|   -5.148692|   -2.355418|   -2.672559|   -4.768983|
|         715|   -5.156427|   -2.355545|   -2.682620|   -4.778503|
|         716|   -5.160462|   -2.355090|   -2.690793|   -4.787235|
|         717|   -5.163739|   -2.354913|   -2.697709|   -4.794889|
|         718|   -5.166462|   -2.354597|   -2.704198|   -4.801617|
|         719|   -5.167222|   -2.353577|   -2.711644|   -4.807912|
|         720|   -5.165623|   -2.352263|   -2.718900|   -4.814179|
|         721|   -5.161223|   -2.350815|   -2.725168|   -4.820802|
|         722|   -5.153685|   -2.349454|   -2.730304|   -4.828068|
|         723|   -5.146644|   -2.348595|   -2.734470|   -4.835909|
|         724|   -5.141152|   -2.348284|   -2.739471|   -4.843283|
|         725|   -5.137443|   -2.348353|   -2.743976|   -4.849361|
|         726|   -5.136004|   -2.348399|   -2.748304|   -4.854720|
|         727|   -5.135332|   -2.348393|   -2.752567|   -4.860633|
|         728|   -5.134011|   -2.348484|   -2.757986|   -4.867573|
|         729|   -5.132208|   -2.348946|   -2.763328|   -4.874973|
|         730|   -5.130467|   -2.349869|   -2.768301|   -4.882192|
|         731|   -5.128638|   -2.351450|   -2.772170|   -4.888989|
|         732|   -5.126491|   -2.353934|   -2.775427|   -4.895405|
|         733|   -5.124012|   -2.357296|   -2.777902|   -4.901512|
|         734|   -5.121239|   -2.361427|   -2.780011|   -4.907376|
|         735|   -5.118261|   -2.366113|   -2.781518|   -4.913033|
|         736|   -5.115022|   -2.371226|   -2.782638|   -4.918548|
|         737|   -5.111503|   -2.376640|   -2.782979|   -4.923996|
|         738|   -5.107961|   -2.382210|   -2.782186|   -4.929422|
|         739|   -5.104881|   -2.387802|   -2.779744|   -4.934856|
|         740|   -5.102956|   -2.393245|   -2.775209|   -4.940261|
|         741|   -5.099944|   -2.398542|   -2.770926|   -4.945544|
|         742|   -5.096435|   -2.403601|   -2.766036|   -4.950655|
|         743|   -5.091944|   -2.408433|   -2.761175|   -4.955524|
|         744|   -5.086171|   -2.412966|   -2.756471|   -4.960058|
|         745|   -5.079387|   -2.417169|   -2.751565|   -4.964223|
|         746|   -5.072124|   -2.421296|   -2.745838|   -4.967990|
|         747|   -5.064586|   -2.426167|   -2.739436|   -4.971350|
|         748|   -5.057587|   -2.432802|   -2.732128|   -4.974183|
|         749|   -5.050259|   -2.442339|   -2.725609|   -4.976067|
|         750|   -5.042755|   -2.454817|   -2.721364|   -4.976795|
|         751|   -5.036377|   -2.468831|   -2.719841|   -4.977090|
|         752|   -5.032069|   -2.482042|   -2.721343|   -4.977399|
|         753|   -5.030373|   -2.494296|   -2.726230|   -4.977306|
|         754|   -5.031376|   -2.504926|   -2.725133|   -4.976327|
|         755|   -5.030703|   -2.513322|   -2.722277|   -4.974114|
|         756|   -5.027975|   -2.518699|   -2.716899|   -4.970744|
|         757|   -5.024015|   -2.520533|   -2.713783|   -4.966267|
|         758|   -5.019485|   -2.521701|   -2.712623|   -4.960684|
|         759|   -5.015212|   -2.522913|   -2.710371|   -4.953785|
|         760|   -5.010502|   -2.523501|   -2.709165|   -4.945376|
|         761|   -5.004923|   -2.523037|   -2.708946|   -4.935137|
|         762|   -4.998690|   -2.522066|   -2.709734|   -4.922909|
|         763|   -4.991769|   -2.521178|   -2.711409|   -4.908462|
|         764|   -4.984090|   -2.520724|   -2.713997|   -4.891797|
|         765|   -4.975311|   -2.520828|   -2.717417|   -4.872842|
|         766|   -4.965522|   -2.522207|   -2.720933|   -4.851790|
|         767|   -4.954614|   -2.524937|   -2.724151|   -4.829159|
|         768|   -4.941975|   -2.528634|   -2.728409|   -4.805503|
|         769|   -4.927569|   -2.533312|   -2.733444|   -4.781309|
|         770|   -4.911636|   -2.538608|   -2.739263|   -4.756978|
|         771|   -4.894754|   -2.544107|   -2.745816|   -4.732521|
|         772|   -4.878071|   -2.549998|   -2.753046|   -4.708708|
|         773|   -4.861260|   -2.556394|   -2.760749|   -4.687160|
|         774|   -4.841597|   -2.562817|   -2.768576|   -4.668835|
|         775|   -4.825180|   -2.568645|   -2.777161|   -4.649797|
|         776|   -4.813172|   -2.574909|   -2.786039|   -4.628775|
|         777|   -4.796814|   -2.581080|   -2.794512|   -4.611285|
|         778|   -4.780266|   -2.586006|   -2.802744|   -4.596448|
|         779|   -4.766826|   -2.590912|   -2.811002|   -4.583774|
|         780|   -4.755277|   -2.595504|   -2.819337|   -4.572310|
|         781|   -4.744889|   -2.599628|   -2.827689|   -4.561022|
|         782|   -4.735503|   -2.603257|   -2.836260|   -4.551583|
|         783|   -4.728746|   -2.604597|   -2.810940|   -4.544178|
|         784|   -4.736596|   -2.602677|   -2.781432|   -4.539423|
|         785|   -4.748586|   -2.603178|   -2.756943|   -4.533923|
|         786|   -4.761344|   -2.604828|   -2.738660|   -4.527086|
|         787|   -4.773404|   -2.606082|   -2.725849|   -4.518071|
|         788|   -4.784237|   -2.604023|   -2.699088|   -4.509394|
|         789|   -4.801064|   -2.598437|   -2.679904|   -4.498985|
|         790|   -4.815372|   -2.592605|   -2.664400|   -4.487240|
|         791|   -4.827344|   -2.585576|   -2.654486|   -4.474464|
|         792|   -4.836095|   -2.578277|   -2.650312|   -4.461786|
|         793|   -4.841222|   -2.570272|   -2.646707|   -4.450847|
|         794|   -4.845861|   -2.561022|   -2.643407|   -4.441499|
|         795|   -4.850731|   -2.551539|   -2.642734|   -4.433031|
|         796|   -4.854699|   -2.542550|   -2.644117|   -4.424871|
|         797|   -4.858120|   -2.533911|   -2.647459|   -4.417692|
|         798|   -4.861235|   -2.525939|   -2.652575|   -4.410796|
|         799|   -4.863620|   -2.518670|   -2.659389|   -4.404296|
|         800|   -4.865548|   -2.511819|   -2.667735|   -4.398085|
|         801|   -4.866483|   -2.505417|   -2.677338|   -4.391802|
|         802|   -4.866835|   -2.499111|   -2.687752|   -4.385968|
|         803|   -4.866243|   -2.492949|   -2.698694|   -4.379768|
|         804|   -4.864966|   -2.486681|   -2.709638|   -4.373827|
|         805|   -4.862800|   -2.480315|   -2.720335|   -4.367663|
|         806|   -4.859898|   -2.473713|   -2.730359|   -4.361498|
|         807|   -4.856386|   -2.466882|   -2.739538|   -4.355427|
|         808|   -4.852251|   -2.459812|   -2.747750|   -4.349296|
|         809|   -4.847661|   -2.452527|   -2.754879|   -4.343317|
|         810|   -4.842746|   -2.445067|   -2.761055|   -4.337444|
|         811|   -4.837549|   -2.437490|   -2.766442|   -4.331826|
|         812|   -4.832240|   -2.429849|   -2.771269|   -4.326411|
|         813|   -4.826960|   -2.422241|   -2.775849|   -4.321383|
|         814|   -4.821750|   -2.414774|   -2.780460|   -4.316749|
|         815|   -4.816635|   -2.407506|   -2.785235|   -4.312500|
|         816|   -4.811671|   -2.400489|   -2.790217|   -4.308730|
|         817|   -4.806959|   -2.393797|   -2.795378|   -4.305485|
|         818|   -4.802488|   -2.387480|   -2.800609|   -4.302768|
|         819|   -4.798380|   -2.381555|   -2.805520|   -4.300672|
|         820|   -4.794682|   -2.376098|   -2.810079|   -4.299142|
|         821|   -4.791480|   -2.370981|   -2.810865|   -4.298450|
|         822|   -4.792230|   -2.365548|   -2.811706|   -4.297974|
|         823|   -4.792068|   -2.361940|   -2.812893|   -4.297995|
|         824|   -4.791794|   -2.358457|   -2.810197|   -4.298645|
|         825|   -4.794238|   -2.354921|   -2.806145|   -4.299523|
|         826|   -4.796774|   -2.352495|   -2.800563|   -4.300795|
|         827|   -4.800443|   -2.350247|   -2.795350|   -4.302213|
|         828|   -4.803718|   -2.349476|   -2.793807|   -4.303768|
|         829|   -4.804781|   -2.349981|   -2.794036|   -4.305856|
|         830|   -4.807513|   -2.349918|   -2.792708|   -4.308059|
|         831|   -4.809266|   -2.350422|   -2.791444|   -4.310520|
|         832|   -4.809165|   -2.350910|   -2.789605|   -4.313568|
|         833|   -4.811636|   -2.350841|   -2.788277|   -4.316678|
|         834|   -4.813298|   -2.351971|   -2.790620|   -4.320011|
|         835|   -4.813184|   -2.353474|   -2.793015|   -4.323767|
|         836|   -4.812983|   -2.354694|   -2.794632|   -4.327947|
|         837|   -4.813526|   -2.355652|   -2.796658|   -4.332409|
|         838|   -4.813191|   -2.356868|   -2.799150|   -4.337414|
|         839|   -4.814730|   -2.357798|   -2.801439|   -4.342641|
|         840|   -4.816317|   -2.359199|   -2.805473|   -4.348174|
|         841|   -4.817265|   -2.360886|   -2.811100|   -4.354094|
|         842|   -4.817408|   -2.362815|   -2.818113|   -4.360548|
|         843|   -4.817227|   -2.364776|   -2.825618|   -4.367661|
|         844|   -4.818484|   -2.366707|   -2.833248|   -4.375330|
|         845|   -4.822309|   -2.368963|   -2.842835|   -4.383185|
|         846|   -4.824758|   -2.371907|   -2.855023|   -4.391449|
|         847|   -4.825736|   -2.374694|   -2.865899|   -4.400362|
|         848|   -4.828951|   -2.377230|   -2.873634|   -4.409538|
|         849|   -4.831606|   -2.380135|   -2.879787|   -4.419010|
|         850|   -4.833520|   -2.383134|   -2.882789|   -4.428795|
|         851|   -4.835704|   -2.386052|   -2.883366|   -4.438761|
|         852|   -4.838389|   -2.389104|   -2.879385|   -4.448805|
|         853|   -4.843158|   -2.392628|   -2.871637|   -4.458654|
|         854|   -4.847188|   -2.396895|   -2.863558|   -4.468347|
|         855|   -4.850408|   -2.401547|   -2.852526|   -4.477905|
|         856|   -4.854332|   -2.406854|   -2.840277|   -4.487196|
|         857|   -4.857339|   -2.412821|   -2.826525|   -4.496202|
|         858|   -4.859968|   -2.419327|   -2.810111|   -4.505050|
|         859|   -4.862804|   -2.426461|   -2.793024|   -4.513807|
|         860|   -4.865340|   -2.434371|   -2.776698|   -4.522601|
|         861|   -4.867604|   -2.443017|   -2.761753|   -4.531442|
|         862|   -4.870521|   -2.452469|   -2.749852|   -4.540081|
|         863|   -4.874202|   -2.462690|   -2.742035|   -4.548368|
|         864|   -4.878091|   -2.473687|   -2.737909|   -4.556377|
|         865|   -4.881350|   -2.485135|   -2.734697|   -4.564206|
|         866|   -4.883865|   -2.496319|   -2.728603|   -4.571869|
|         867|   -4.886067|   -2.507309|   -2.722663|   -4.579365|
|         868|   -4.887660|   -2.517316|   -2.714893|   -4.586567|
|         869|   -4.889030|   -2.526239|   -2.707120|   -4.592869|
|         870|   -4.889789|   -2.534610|   -2.699113|   -4.598403|
|         871|   -4.889754|   -2.542601|   -2.689333|   -4.603538|
|         872|   -4.888790|   -2.550277|   -2.679966|   -4.608458|
|         873|   -4.887417|   -2.558137|   -2.671387|   -4.613304|
|         874|   -4.886038|   -2.565961|   -2.662980|   -4.618202|
|         875|   -4.885275|   -2.574051|   -2.656276|   -4.623063|
|         876|   -4.884687|   -2.582312|   -2.651863|   -4.627690|
|         877|   -4.884238|   -2.590550|   -2.647211|   -4.632157|
|         878|   -4.883787|   -2.598869|   -2.642719|   -4.636643|
|         879|   -4.883289|   -2.607412|   -2.638727|   -4.641131|
|         880|   -4.882738|   -2.616102|   -2.635188|   -4.645530|
|         881|   -4.882289|   -2.624674|   -2.632107|   -4.649718|
|         882|   -4.882404|   -2.632752|   -2.616233|   -4.653755|
|         883|   -4.883408|   -2.640961|   -2.599309|   -4.657663|
|         884|   -4.884235|   -2.649444|   -2.583936|   -4.661420|
|         885|   -4.885340|   -2.657689|   -2.570253|   -4.664917|
|         886|   -4.886508|   -2.665160|   -2.558172|   -4.668029|
|         887|   -4.887589|   -2.671734|   -2.547431|   -4.670704|
|         888|   -4.888482|   -2.677368|   -2.537584|   -4.672865|
|         889|   -4.889289|   -2.682069|   -2.528706|   -4.674329|
|         890|   -4.890083|   -2.685869|   -2.520597|   -4.674945|
|         891|   -4.890811|   -2.688750|   -2.513088|   -4.674699|
|         892|   -4.890996|   -2.690604|   -2.505961|   -4.673784|
|         893|   -4.889962|   -2.691144|   -2.499109|   -4.672960|
|         894|   -4.888879|   -2.690366|   -2.492391|   -4.670704|
|         895|   -4.887945|   -2.687925|   -2.485781|   -4.668094|
|         896|   -4.888543|   -2.684011|   -2.479788|   -4.666400|
|         897|   -4.889643|   -2.679593|   -2.474708|   -4.665473|
|         898|   -4.890975|   -2.674649|   -2.470442|   -4.665351|
|         899|   -4.891841|   -2.669108|   -2.466856|   -4.665602|
|         900|   -4.892433|   -2.662516|   -2.463801|   -4.665807|
|         901|   -4.893894|   -2.653900|   -2.461080|   -4.666641|
|         902|   -4.896966|   -2.640798|   -2.458133|   -4.669260|
|         903|   -4.901202|   -2.633086|   -2.455476|   -4.673385|
|         904|   -4.906917|   -2.628578|   -2.452783|   -4.678381|
|         905|   -4.914028|   -2.622475|   -2.450246|   -4.684055|
|         906|   -4.921270|   -2.613871|   -2.448686|   -4.689810|
|         907|   -4.929122|   -2.606021|   -2.447687|   -4.694789|
|         908|   -4.937132|   -2.599108|   -2.446527|   -4.699201|
|         909|   -4.944289|   -2.592124|   -2.445257|   -4.703396|
|         910|   -4.951133|   -2.584704|   -2.444298|   -4.707386|
|         911|   -4.957891|   -2.576329|   -2.444151|   -4.711139|
|         912|   -4.964794|   -2.567183|   -2.444967|   -4.714684|
|         913|   -4.971936|   -2.557896|   -2.446587|   -4.718034|
|         914|   -4.979359|   -2.548778|   -2.448837|   -4.721110|
|         915|   -4.986961|   -2.539681|   -2.451627|   -4.723922|
|         916|   -4.994641|   -2.530432|   -2.454836|   -4.726625|
|         917|   -5.002342|   -2.521252|   -2.458355|   -4.729360|
|         918|   -5.010019|   -2.512529|   -2.462035|   -4.732161|
|         919|   -5.017607|   -2.504375|   -2.465811|   -4.734997|
|         920|   -5.025066|   -2.496808|   -2.469723|   -4.737820|
|         921|   -5.032396|   -2.489792|   -2.473752|   -4.740610|
|         922|   -5.039637|   -2.483213|   -2.477980|   -4.743406|
|         923|   -5.046848|   -2.476922|   -2.482521|   -4.746265|
|         924|   -5.054124|   -2.470859|   -2.487507|   -4.749238|
|         925|   -5.061550|   -2.465014|   -2.493013|   -4.752354|
|         926|   -5.069197|   -2.459332|   -2.499079|   -4.755622|
|         927|   -5.077111|   -2.453745|   -2.505704|   -4.759042|
|         928|   -5.085292|   -2.448192|   -2.512859|   -4.762620|
|         929|   -5.093731|   -2.442664|   -2.520495|   -4.766360|
|         930|   -5.102416|   -2.437207|   -2.528555|   -4.770267|
|         931|   -5.111346|   -2.431888|   -2.536992|   -4.774337|
|         932|   -5.120537|   -2.426780|   -2.545796|   -4.778557|
|         933|   -5.130008|   -2.421936|   -2.554988|   -4.782911|
|         934|   -5.139781|   -2.417386|   -2.564618|   -4.787377|
|         935|   -5.149874|   -2.413139|   -2.574735|   -4.791930|
|         936|   -5.160286|   -2.409188|   -2.585381|   -4.796536|
|         937|   -5.170950|   -2.405570|   -2.596586|   -4.801190|
|         938|   -5.181966|   -2.402269|   -2.608359|   -4.805861|
|         939|   -5.193279|   -2.399245|   -2.620693|   -4.810521|
|         940|   -5.204850|   -2.396490|   -2.633563|   -4.815150|
|         941|   -5.216642|   -2.393988|   -2.646945|   -4.819728|
|         942|   -5.228611|   -2.391714|   -2.660809|   -4.824236|
|         943|   -5.240720|   -2.389646|   -2.675132|   -4.828662|
|         944|   -5.252903|   -2.387762|   -2.689905|   -4.833001|
|         945|   -5.265095|   -2.386049|   -2.705124|   -4.837252|
|         946|   -5.277227|   -2.384494|   -2.720774|   -4.841408|
|         947|   -5.289233|   -2.383081|   -2.736822|   -4.845461|
|         948|   -5.301042|   -2.381794|   -2.753209|   -4.849398|
|         949|   -5.312564|   -2.380620|   -2.769862|   -4.853202|
|         950|   -5.323689|   -2.379550|   -2.786697|   -4.856853|
|         951|   -5.334298|   -2.378577|   -2.803626|   -4.860330|
|         952|   -5.344281|   -2.377699|   -2.820563|   -4.863606|
|         953|   -5.353504|   -2.376920|   -2.837382|   -4.866654|
|         954|   -5.361865|   -2.376246|   -2.853954|   -4.869447|
|         955|   -5.369267|   -2.375674|   -2.870116|   -4.871951|
|         956|   -5.375610|   -2.375203|   -2.885685|   -4.874137|
|         957|   -5.380816|   -2.374839|   -2.900467|   -4.875961|
|         958|   -5.384824|   -2.374586|   -2.914262|   -4.877371|
|         959|   -5.387594|   -2.374453|   -2.926874|   -4.878342|
|         960|   -5.389111|   -2.374444|   -2.938110|   -4.878819|
|         961|   -5.389365|   -2.374568|   -2.947787|   -4.878749|
|         962|   -5.388357|   -2.374836|   -2.955736|   -4.878130|
|         963|   -5.386089|   -2.375259|   -2.961800|   -4.876926|
|         964|   -5.382596|   -2.375847|   -2.965847|   -4.875028|
|         965|   -5.377873|   -2.376609|   -2.967804|   -4.872490|
|         966|   -5.371947|   -2.377552|   -2.967598|   -4.869192|
|         967|   -5.364844|   -2.378683|   -2.965238|   -4.865063|
[...]
|        5933|   -0.080152|    7.677236|    7.527563|    0.423097|
|        5934|   -0.089703|    7.680496|    7.535921|    0.421097|
|        5935|   -0.095810|    7.683358|    7.544310|    0.417838|
|        5936|   -0.107532|    7.686587|    7.552598|    0.414137|
|        5937|   -0.115896|    7.689359|    7.560715|    0.409431|
|        5938|   -0.127700|    7.692592|    7.568646|    0.404210|
|        5939|   -0.139342|    7.695852|    7.576280|    0.398501|
|        5940|   -0.150721|    7.699496|    7.583701|    0.392222|
|        5941|   -0.164053|    7.703684|    7.590949|    0.385708|
|        5942|   -0.175284|    7.708329|    7.598193|    0.378922|
|        5943|   -0.187464|    7.713909|    7.605697|    0.371841|
|        5944|   -0.198938|    7.720366|    7.613793|    0.364692|
|        5945|   -0.209581|    7.728035|    7.622891|    0.357469|
|        5946|   -0.219836|    7.737210|    7.633390|    0.350196|
|        5947|   -0.228733|    7.748083|    7.645663|    0.343094|
|        5948|   -0.236007|    7.760912|    7.660004|    0.336044|
|        5949|   -0.241637|    7.775758|    7.676536|    0.329143|
|        5950|   -0.245106|    7.792479|    7.695270|    0.322494|
|        5951|   -0.245996|    7.810802|    7.716018|    0.315893|
|        5952|   -0.245098|    7.830228|    7.738372|    0.309428|
|        5953|   -0.242007|    7.850098|    7.761892|    0.302964|
|        5954|   -0.237893|    7.869753|    7.785960|    0.296415|
|        5955|   -0.233073|    7.888399|    7.809782|    0.289794|
|        5956|   -0.227899|    7.905432|    7.832854|    0.282997|
|        5957|   -0.222471|    7.920321|    7.854509|    0.276065|
|        5958|   -0.217055|    7.932646|    7.874352|    0.268954|
|        5959|   -0.212230|    7.942306|    7.892005|    0.261632|
|        5960|   -0.208791|    7.949318|    7.907222|    0.254121|
|        5961|   -0.207809|    7.953781|    7.919873|    0.246418|
|        5962|   -0.210173|    7.956019|    7.929934|    0.238594|
|        5963|   -0.216045|    7.956398|    7.937540|    0.230694|
|        5964|   -0.225144|    7.955308|    7.942952|    0.222717|
|        5965|   -0.236796|    7.953132|    7.946512|    0.214611|
|        5966|   -0.250306|    7.950325|    7.948540|    0.206268|
|        5967|   -0.264726|    7.947314|    7.949397|    0.197565|
|        5968|   -0.279487|    7.944447|    7.949378|    0.188402|
|        5969|   -0.294152|    7.942006|    7.948769|    0.178738|
|        5970|   -0.308534|    7.940198|    7.947802|    0.168580|
|        5971|   -0.322578|    7.939145|    7.946697|    0.157985|
|        5972|   -0.336289|    7.938895|    7.945645|    0.147030|
|        5973|   -0.349674|    7.939435|    7.944812|    0.135792|
|        5974|   -0.362762|    7.940728|    7.944325|    0.124330|
|        5975|   -0.375552|    7.942722|    7.944265|    0.112685|
|        5976|   -0.388059|    7.945355|    7.944659|    0.100874|
|        5977|   -0.400286|    7.948549|    7.945482|    0.088908|
|        5978|   -0.412226|    7.952214|    7.946674|    0.076790|
|        5979|   -0.423843|    7.956245|    7.948156|    0.064529|
|        5980|   -0.435127|    7.960527|    7.949835|    0.052146|
|        5981|   -0.445931|    7.964946|    7.951632|    0.039678|
|        5982|   -0.456072|    7.969395|    7.953491|    0.027179|
|        5983|   -0.465304|    7.973769|    7.955377|    0.014707|
|        5984|   -0.473229|    7.977984|    7.957273|    0.002332|
|        5985|   -0.479459|    7.981978|    7.959174|   -0.009880|
|        5986|   -0.483696|    7.985701|    7.961071|   -0.021861|
|        5987|   -0.485466|    7.989117|    7.962954|   -0.033554|
|        5988|   -0.484704|    7.992201|    7.964805|   -0.044906|
|        5989|   -0.481386|    7.994914|    7.966599|   -0.055880|
|        5990|   -0.475690|    7.997239|    7.968314|   -0.066444|
|        5991|   -0.468087|    7.999145|    7.969933|   -0.076566|
|        5992|   -0.458868|    8.000626|    7.971463|   -0.086214|
|        5993|   -0.448691|    8.001663|    7.972918|   -0.095342|
|        5994|   -0.437812|    8.002274|    7.974335|   -0.103895|
|        5995|   -0.426734|    8.002479|    7.975756|   -0.111788|
|        5996|   -0.415684|    8.002325|    7.977212|   -0.118929|
|        5997|   -0.404745|    8.001873|    7.978749|   -0.125217|
|        5998|   -0.394159|    8.001184|    7.980376|   -0.130536|
|        5999|   -0.383670|    8.000334|    7.982102|   -0.134808|
|        6000|   -0.373645|    7.999386|    7.983899|   -0.137919|
|        6001|   -0.363826|    7.998403|    7.985761|   -0.139876|
|        6002|   -0.354087|    7.997393|    7.987654|   -0.140716|
|        6003|   -0.344064|    7.996403|    7.989534|   -0.140491|
|        6004|   -0.333649|    7.995462|    7.991403|   -0.139237|
|        6005|   -0.322766|    7.994581|    7.993245|   -0.137032|
|        6006|   -0.311255|    7.993815|    7.995046|   -0.133973|
|        6007|   -0.299147|    7.993163|    7.996820|   -0.130141|
|        6008|   -0.286352|    7.992707|    7.998536|   -0.125599|
|        6009|   -0.272917|    7.992466|    8.000180|   -0.120405|
|        6010|   -0.258897|    7.992483|    8.001725|   -0.114632|
|        6011|   -0.244336|    7.992821|    8.003101|   -0.108326|
|        6012|   -0.229457|    7.993464|    8.004287|   -0.101543|
|        6013|   -0.214420|    7.994415|    8.005230|   -0.094370|
|        6014|   -0.199545|    7.995672|    8.005892|   -0.086862|
|        6015|   -0.185157|    7.997162|    8.006286|   -0.079140|
|        6016|   -0.171764|    7.998818|    8.006408|   -0.071286|
|        6017|   -0.159826|    8.000550|    8.006299|   -0.063376|
|        6018|   -0.149945|    8.002159|    8.006047|   -0.055479|
|        6019|   -0.142763|    8.003476|    8.005704|   -0.047670|
|        6020|   -0.138897|    8.004266|    8.005362|   -0.039985|
|        6021|   -0.138969|    8.004199|    8.005117|   -0.032475|
|        6022|   -0.143457|    8.003074|    8.005002|   -0.025145|
|        6023|   -0.152689|    8.000686|    8.005039|   -0.018008|
|        6024|   -0.166609|    7.996956|    8.005224|   -0.011043|
|        6025|   -0.184687|    7.992098|    8.005440|   -0.004281|
|        6026|   -0.205891|    7.986529|    8.005602|    0.002281|
|        6027|   -0.228567|    7.980838|    8.005633|    0.008651|
|        6028|   -0.250777|    7.975719|    8.005449|    0.014813|
|        6029|   -0.270634|    7.971778|    8.005064|    0.020764|
|        6030|   -0.286726|    7.969269|    8.004615|    0.026505|
|        6031|   -0.298526|    7.968120|    8.004235|    0.032043|
|        6032|   -0.306095|    7.968081|    8.004019|    0.037385|
|        6033|   -0.310058|    7.968737|    8.004120|    0.042538|
|        6034|   -0.311183|    7.969729|    8.004592|    0.047509|
|        6035|   -0.310212|    7.970840|    8.005362|    0.052350|
|        6036|   -0.307697|    7.971904|    8.006392|    0.057039|
|        6037|   -0.303931|    7.972906|    8.007662|    0.061597|
|        6038|   -0.298719|    7.973904|    8.009041|    0.066035|
|        6039|   -0.291471|    7.974909|    8.010483|    0.070348|
|        6040|   -0.281641|    7.976104|    8.011892|    0.074525|
|        6041|   -0.268690|    7.977692|    8.013192|    0.078575|
|        6042|   -0.252386|    7.979754|    8.014369|    0.082492|
|        6043|   -0.233305|    7.982321|    8.015395|    0.086268|
|        6044|   -0.212293|    7.985483|    8.016263|    0.089913|
|        6045|   -0.190152|    7.989211|    8.017047|    0.093431|
|        6046|   -0.167984|    7.993294|    8.017833|    0.096825|
|        6047|   -0.146785|    7.997536|    8.018632|    0.100113|
|        6048|   -0.127445|    8.001737|    8.019450|    0.103323|
|        6049|   -0.110469|    8.005595|    8.020394|    0.106486|
|        6050|   -0.096443|    8.008775|    8.021477|    0.109605|
|        6051|   -0.085875|    8.011006|    8.022667|    0.112677|
|        6052|   -0.079065|    8.012076|    8.023971|    0.115724|
|        6053|   -0.076090|    8.011880|    8.025401|    0.118730|
|        6054|   -0.077022|    8.010446|    8.026879|    0.121683|
|        6055|   -0.081870|    8.007947|    8.028251|    0.124573|
|        6056|   -0.090350|    8.004678|    8.029477|    0.127391|
|        6057|   -0.101907|    8.001005|    8.030529|    0.130111|
|        6058|   -0.115843|    7.997249|    8.031374|    0.132694|
|        6059|   -0.131425|    7.993663|    8.032065|    0.135174|
|        6060|   -0.147419|    7.990512|    8.032775|    0.137585|
|        6061|   -0.162900|    7.988005|    8.033652|    0.139972|
|        6062|   -0.177359|    7.986260|    8.034785|    0.142371|
|        6063|   -0.190982|    7.985290|    8.036282|    0.144855|
|        6064|   -0.203781|    7.985104|    8.038231|    0.147472|
|        6065|   -0.215907|    7.985666|    8.040620|    0.150279|
|        6066|   -0.227018|    7.986880|    8.043383|    0.153304|
|        6067|   -0.236177|    7.988809|    8.046440|    0.156590|
|        6068|   -0.241523|    7.991690|    8.049726|    0.160160|
|        6069|   -0.241629|    7.995814|    8.053120|    0.164019|
|        6070|   -0.236234|    8.001242|    8.056582|    0.168150|
|        6071|   -0.226494|    8.007961|    8.060101|    0.172552|
|        6072|   -0.214259|    8.015772|    8.063758|    0.177206|
|        6073|   -0.201844|    8.024280|    8.067590|    0.182073|
|        6074|   -0.191182|    8.032889|    8.071674|    0.187106|
|        6075|   -0.183528|    8.041083|    8.076009|    0.192272|
|        6076|   -0.179084|    8.048545|    8.080557|    0.197535|
|        6077|   -0.177231|    8.055098|    8.085189|    0.202835|
|        6078|   -0.176463|    8.060766|    8.089684|    0.208107|
|        6079|   -0.174513|    8.065730|    8.093820|    0.213283|
|        6080|   -0.168844|    8.070377|    8.097364|    0.218331|
|        6081|   -0.157446|    8.075152|    8.100138|    0.223214|
|        6082|   -0.140149|    8.080361|    8.102038|    0.227861|
|        6083|   -0.118858|    8.086132|    8.103068|    0.232213|
|        6084|   -0.096755|    8.092297|    8.103417|    0.236224|
|        6085|   -0.077590|    8.098424|    8.103447|    0.239792|
|        6086|   -0.063816|    8.103860|    8.103552|    0.242890|
|        6087|   -0.056809|    8.107812|    8.104048|    0.245444|
|        6088|   -0.057389|    8.109667|    8.105130|    0.247427|
|        6089|   -0.065391|    8.109075|    8.106826|    0.248815|
|        6090|   -0.079870|    8.105987|    8.108979|    0.249565|
|        6091|   -0.099258|    8.100780|    8.111272|    0.249647|
|        6092|   -0.121470|    8.094181|    8.113359|    0.249049|
|        6093|   -0.144054|    8.087210|    8.114979|    0.247760|
|        6094|   -0.164543|    8.080836|    8.116012|    0.245774|
|        6095|   -0.181097|    8.075756|    8.116489|    0.243113|
|        6096|   -0.192792|    8.072365|    8.116538|    0.239810|
|        6097|   -0.199614|    8.070717|    8.116382|    0.235894|
|        6098|   -0.202276|    8.070600|    8.116240|    0.231414|
|        6099|   -0.201816|    8.071596|    8.116276|    0.226436|
|        6100|   -0.199204|    8.073378|    8.116560|    0.221023|
|        6101|   -0.195039|    8.075638|    8.117152|    0.215246|
|        6102|   -0.189776|    8.078162|    8.118027|    0.209178|
|        6103|   -0.183691|    8.080840|    8.119085|    0.202891|
|        6104|   -0.177020|    8.083648|    8.120206|    0.196441|
|        6105|   -0.169910|    8.086578|    8.121303|    0.189881|
|        6106|   -0.162489|    8.089577|    8.122344|    0.183253|
|        6107|   -0.155305|    8.092647|    8.123319|    0.176555|
|        6108|   -0.148603|    8.095777|    8.124229|    0.169797|
|        6109|   -0.142149|    8.098905|    8.125095|    0.162928|
|        6110|   -0.136064|    8.102017|    8.125921|    0.155915|
|        6111|   -0.130471|    8.105079|    8.126717|    0.148685|
|        6112|   -0.125487|    8.108061|    8.127535|    0.141140|
|        6113|   -0.121204|    8.110964|    8.128401|    0.133165|
|        6114|   -0.117707|    8.113799|    8.129330|    0.124619|
|        6115|   -0.115122|    8.116592|    8.130344|    0.115372|
|        6116|   -0.113555|    8.119364|    8.131419|    0.105297|
|        6117|   -0.113069|    8.122112|    8.132534|    0.094272|
|        6118|   -0.113753|    8.124864|    8.133658|    0.082209|
|        6119|   -0.115667|    8.127682|    8.134774|    0.069060|
|        6120|   -0.118840|    8.130570|    8.135917|    0.054843|
|        6121|   -0.123257|    8.133499|    8.137103|    0.039664|
|        6122|   -0.128831|    8.136421|    8.138323|    0.023738|
|        6123|   -0.135493|    8.139327|    8.139539|    0.007388|
|        6124|   -0.143139|    8.142172|    8.140769|   -0.008926|
|        6125|   -0.151552|    8.144870|    8.142035|   -0.024589|
|        6126|   -0.160525|    8.147440|    8.143298|   -0.038889|
|        6127|   -0.169846|    8.149812|    8.144540|   -0.051073|
|        6128|   -0.179299|    8.151915|    8.145626|   -0.060468|
|        6129|   -0.188686|    8.153767|    8.146354|   -0.066618|
|        6130|   -0.197927|    8.155325|    8.146583|   -0.069343|
|        6131|   -0.206948|    8.156659|    8.146128|   -0.068779|
|        6132|   -0.215654|    8.157804|    8.144865|   -0.065290|
|        6133|   -0.223942|    8.158767|    8.142684|   -0.059408|
|        6134|   -0.231865|    8.159511|    8.139571|   -0.051772|
|        6135|   -0.239381|    8.159945|    8.135682|   -0.043006|
|        6136|   -0.246267|    8.159971|    8.131329|   -0.033652|
|        6137|   -0.252188|    8.159558|    8.126950|   -0.024156|
|        6138|   -0.256744|    8.158744|    8.122999|   -0.014866|
|        6139|   -0.259597|    8.157810|    8.119679|   -0.006058|
|        6140|   -0.260799|    8.157110|    8.116917|    0.002119|
|        6141|   -0.260579|    8.157113|    8.114469|    0.009561|
|        6142|   -0.259298|    8.158232|    8.112213|    0.016209|
|        6143|   -0.256728|    8.160762|    8.110200|    0.022020|
|        6144|   -0.252856|    8.164825|    8.108552|    0.026984|
|        6145|   -0.248043|    8.170435|    8.107486|    0.031120|
|        6146|   -0.242641|    8.177527|    8.107240|    0.034472|
|        6147|   -0.236741|    8.186012|    8.108098|    0.037079|
|        6148|   -0.230474|    8.195794|    8.110413|    0.038945|
|        6149|   -0.223935|    8.206757|    8.114625|    0.040080|
|        6150|   -0.217173|    8.218738|    8.121162|    0.040466|
|        6151|   -0.210450|    8.231555|    8.130203|    0.040124|
|        6152|   -0.204130|    8.245025|    8.141760|    0.039054|
|        6153|   -0.198216|    8.259014|    8.155804|    0.037274|
|        6154|   -0.192467|    8.273373|    8.172158|    0.034835|
|        6155|   -0.186659|    8.287978|    8.190453|    0.031754|
|        6156|   -0.180962|    8.302706|    8.210280|    0.028081|
|        6157|   -0.175349|    8.317403|    8.231303|    0.023883|
|        6158|   -0.169491|    8.331878|    8.253302|    0.019235|
|        6159|   -0.163124|    8.345933|    8.276013|    0.014227|
|        6160|   -0.155918|    8.359353|    8.299065|    0.008919|
|        6161|   -0.147555|    8.371923|    8.321891|    0.003299|
|        6162|   -0.138003|    8.383382|    8.343746|   -0.002630|
|        6163|   -0.127357|    8.393487|    8.363896|   -0.008891|
|        6164|   -0.115665|    8.401984|    8.381857|   -0.015433|
|        6165|   -0.102896|    8.408721|    8.397388|   -0.022064|
|        6166|   -0.089724|    8.413778|    8.410428|   -0.028589|
|        6167|   -0.076690|    8.417480|    8.421172|   -0.034596|
|        6168|   -0.064213|    8.420146|    8.429837|   -0.039525|
|        6169|   -0.052253|    8.422004|    8.436609|   -0.043042|
|        6170|   -0.041580|    8.423075|    8.441565|   -0.044904|
|        6171|   -0.033070|    8.423306|    8.444633|   -0.044921|
|        6172|   -0.027036|    8.422733|    8.445619|   -0.042937|
|        6173|   -0.023695|    8.421479|    8.444201|   -0.038813|
|        6174|   -0.022974|    8.419629|    8.440104|   -0.032371|
|        6175|   -0.024392|    8.417214|    8.433300|   -0.023488|
|        6176|   -0.027549|    8.414284|    8.424029|   -0.012159|
|        6177|   -0.031891|    8.410957|    8.412710|    0.001413|
|        6178|   -0.036624|    8.407316|    8.399802|    0.016960|
|        6179|   -0.040982|    8.403347|    8.385723|    0.034137|
|        6180|   -0.044529|    8.399003|    8.370820|    0.052561|
|        6181|   -0.047257|    8.394215|    8.355351|    0.071823|
|        6182|   -0.049352|    8.388896|    8.339578|    0.091487|
|        6183|   -0.051267|    8.382964|    8.323771|    0.111146|
|        6184|   -0.053372|    8.376378|    8.308162|    0.130449|
|        6185|   -0.055778|    8.369231|    8.292990|    0.149093|
|        6186|   -0.058399|    8.361779|    8.278573|    0.166838|
|        6187|   -0.060342|    8.354465|    8.265352|    0.183568|
|        6188|   -0.059927|    8.347856|    8.253917|    0.199196|
|        6189|   -0.054882|    8.342619|    8.244973|    0.213669|
|        6190|   -0.043191|    8.339370|    8.239279|    0.226994|
|        6191|   -0.023964|    8.338561|    8.237471|    0.239154|
|        6192|    0.002131|    8.340479|    8.239877|    0.250178|
|        6193|    0.032348|    8.345004|    8.245791|    0.260091|
|        6194|    0.064473|    8.351698|    8.253095|    0.268912|
|        6195|    0.099193|    8.359744|    8.258204|    0.276707|
|        6196|    0.138845|    8.368152|    8.259422|    0.283508|
|        6197|    0.182594|    8.376436|    8.259778|    0.289370|
|        6198|    0.225472|    8.386347|    8.265807|    0.294302|
|        6199|    0.261689|    8.401930|    8.281341|    0.298321|
|        6200|    0.288577|    8.426517|    8.306303|    0.301475|
|        6201|    0.309861|    8.457082|    8.338277|    0.303795|
|        6202|    0.323836|    8.483174|    8.367366|    0.305291|
|        6203|    0.323232|    8.496390|    8.385906|    0.305998|
|        6204|    0.308663|    8.494825|    8.397156|    0.305998|
|        6205|    0.283912|    8.479100|    8.395171|    0.305312|
|        6206|    0.248352|    8.454903|    8.384094|    0.303997|
|        6207|    0.208566|    8.426582|    8.367785|    0.302148|
|        6208|    0.170016|    8.397702|    8.348782|    0.299818|
|        6209|    0.135947|    8.369485|    8.328233|    0.297056|
|        6210|    0.106606|    8.342794|    8.308345|    0.293923|
|        6211|    0.078288|    8.317715|    8.288244|    0.290501|
|        6212|    0.054146|    8.294664|    8.269042|    0.286815|
|        6213|    0.035352|    8.273608|    8.251049|    0.282900|
|        6214|    0.020589|    8.254581|    8.233839|    0.278785|
|        6215|    0.010251|    8.237748|    8.217591|    0.274452|
|        6216|    0.004014|    8.223212|    8.202038|    0.269854|
|        6217|    0.001509|    8.211021|    8.187153|    0.264916|
|        6218|    0.001840|    8.201002|    8.172879|    0.259572|
|        6219|    0.004601|    8.192582|    8.159560|    0.253715|
|        6220|    0.009354|    8.184715|    8.147708|    0.247252|
|        6221|    0.014733|    8.176026|    8.136840|    0.240097|
|        6222|    0.019246|    8.165372|    8.125100|    0.232202|
|        6223|    0.021761|    8.152289|    8.110440|    0.223635|
|        6224|    0.022532|    8.137160|    8.091804|    0.214459|
|        6225|    0.022177|    8.120876|    8.069347|    0.204834|
|        6226|    0.021234|    8.104437|    8.044052|    0.195026|
|        6227|    0.020008|    8.088647|    8.017322|    0.185378|
|        6228|    0.018667|    8.074100|    7.990464|    0.176256|
|        6229|    0.017425|    8.061066|    7.964365|    0.168073|
|        6230|    0.015808|    8.049667|    7.939587|    0.161236|
