scsub> Executing:  'cd /home/hem1dev/Codes/SU2_Github_Mark_Test/SU2/Venturi'


WARNING: CONV_CRITERIA is deprecated. SU2 will choose the criteria automatically based on the CONV_FIELD.
That is, RESIDUAL for any RMS_* BGS_* value, and CAUCHY for coefficients such as DRAG etc.


-------------------------------------------------------------------------
|    ___ _   _ ___                                                      |
|   / __| | | |_  )   Release 7.1.1 "Blackbird"                         |
|   \__ \ |_| |/ /                                                      |
|   |___/\___//___|   Suite (Computational Fluid Dynamics Code)         |
|                                                                       |
-------------------------------------------------------------------------
| SU2 Project Website: https://su2code.github.io                        |
|                                                                       |
| The SU2 Project is maintained by the SU2 Foundation                   |
| (http://su2foundation.org)                                            |
-------------------------------------------------------------------------
| Copyright 2012-2021, SU2 Contributors                                 |
|                                                                       |
| SU2 is free software; you can redistribute it and/or                  |
| modify it under the terms of the GNU Lesser General Public            |
| License as published by the Free Software Foundation; either          |
| version 2.1 of the License, or (at your option) any later version.    |
|                                                                       |
| SU2 is distributed in the hope that it will be useful,                |
| but WITHOUT ANY WARRANTY; without even the implied warranty of        |
| MERCHANTABILITY or FITNESS FOR A PARTICULAR PURPOSE. See the GNU      |
| Lesser General Public License for more details.                       |
|                                                                       |
| You should have received a copy of the GNU Lesser General Public      |
| License along with SU2. If not, see <http://www.gnu.org/licenses/>.   |
-------------------------------------------------------------------------


WARNING: CONV_CRITERIA is deprecated. SU2 will choose the criteria automatically based on the CONV_FIELD.
That is, RESIDUAL for any RMS_* BGS_* value, and CAUCHY for coefficients such as DRAG etc.


Parsing config file for zone 0


WARNING: CONV_CRITERIA is deprecated. SU2 will choose the criteria automatically based on the CONV_FIELD.
That is, RESIDUAL for any RMS_* BGS_* value, and CAUCHY for coefficients such as DRAG etc.


----------------- Physical Case Definition ( Zone 0 ) -------------------
Incompressible RANS equations.
Turbulence model: Menter's SST
Hybrid RANS/LES: No Hybrid RANS/LES
No restart solution, use the values at infinity (freestream).
Dimensional simulation.
The reference area is 1 m^2.
The semi-span will be computed using the max y(3D) value.
The reference length is 1 m.
Input mesh file name: c6_cms_venturi.cgns

--------------- Space Numerical Integration ( Zone 0 ) ------------------
Flux difference splitting (FDS) upwind scheme for the flow inviscid terms.
Second order integration in space, with slope limiter.
No slope-limiting method. 
Average of gradients with correction (viscous flow terms).
Average of gradients with correction (viscous turbulence terms).
Gradient for upwind reconstruction: inverse-distance weighted Least-Squares.
Gradient for viscous and source terms: inverse-distance weighted Least-Squares.

--------------- Time Numerical Integration  ( Zone 0 ) ------------------
Local time stepping (steady state simulation).
Euler implicit method for the flow equations.
FGMRES is used for solving the linear system.
Using a ILU(0) preconditioning.
Convergence criteria of the linear solver: 1e-08.
Max number of linear iterations: 20.
No CFL adaptation.
Courant-Friedrichs-Lewy number:      100
Euler implicit time integration for the turbulence model.

------------------ Convergence Criteria  ( Zone 0 ) ---------------------
Maximum number of solver subiterations: 10000.
Begin convergence monitoring at iteration 10.
Residual minimum value: 1e-10.
Cauchy series min. value: 1e-06.
Number of Cauchy elements: 100.
Begin windowed time average at iteration 0.

-------------------- Output Information ( Zone 0 ) ----------------------
Writing solution files every 1000 iterations.
Writing the convergence history file every 1 inner iterations.
Writing the screen convergence history every 1 inner iterations.
The tabular file format is CSV (.csv).
Convergence history file name: history_test.
Forces breakdown file name: forces_breakdown.dat.
Surface file name: surface_flow_venturi_mixturedensity_30kW_fine_test.
Volume file name: flow_venturi_mixturedensity_30kW_fine_test.
Restart file name: restart_venturi_mixturedensity_30kW_fine_test.dat.

------------- Config File Boundary Information ( Zone 0 ) ---------------
+-----------------------------------------------------------------------+
|                        Marker Type|                        Marker Name|
+-----------------------------------------------------------------------+
|                     Symmetry plane|                               axis|
+-----------------------------------------------------------------------+
|                     Inlet boundary|                          gas_inlet|
|                                   |                          air_inlet|
+-----------------------------------------------------------------------+
|                    Outlet boundary|                             outlet|
+-----------------------------------------------------------------------+
|                     Heat flux wall|            wall-component1-surface|
+-----------------------------------------------------------------------+

-------------------- Output Preprocessing ( Zone 0 ) --------------------
Screen output fields: INNER_ITER, RMS_PRESSURE, RMS_VELOCITY-X, RMS_VELOCITY-Y, RMS_PASSIVE_SCALAR
History output group(s): RMS_RES, AERO_COEFF, FLOW_COEFF
Convergence field(s): RMS_PRESSURE, RMS_VELOCITY-X, RMS_VELOCITY-Y, RMS_TKE
Warning: No (valid) fields chosen for time convergence monitoring. Time convergence monitoring inactive.
  Info: Ignoring the following volume output fields/groups:
  SOURCE, LOOKUP
Volume output fields: DENSITY, SOLUTION, PRIMITIVE, RESIDUAL, COORDINATES

------------------- Geometry Preprocessing ( Zone 0 ) -------------------
Reading the CGNS file: c6_cms_venturi.cgns.
CGNS file contains 1 database(s).
Database 1, Base:  cell dimension of 2, physical dimension of 2.
1 total zone(s).
Zone 1, Zone: 292948 total vertices, 295883 total elements.
Loading CoordinateX values into linear partitions.
Loading CoordinateY values into linear partitions.
Distributing connectivity across all ranks.
Number of connectivity sections is 6.
Section gas_inlet contains 51 elements of type Mixed.
Section air_inlet contains 150 elements of type Mixed.
Section outlet contains 157 elements of type Mixed.
Section axis contains 1721 elements of type Mixed.
Section component1-surface contains 290183 elements of type Mixed.
Section wall-component1-surface contains 3621 elements of type Mixed.
Loading surface section gas_inlet from file.
Loading surface section air_inlet from file.
Loading surface section outlet from file.
Loading surface section axis from file.
Loading volume section component1-surface from file.
Loading surface section wall-component1-surface from file.
Two dimensional problem.
292948 grid points before partitioning.
290183 volume elements before partitioning.
5 surface markers.
51 boundary elements in index 0 (Marker = gas_inlet).
150 boundary elements in index 1 (Marker = air_inlet).
157 boundary elements in index 2 (Marker = outlet).
1721 boundary elements in index 3 (Marker = axis).
3621 boundary elements in index 4 (Marker = wall-component1-surface).
Executing the partitioning functions.
Building the graph adjacency structure.
Calling ParMETIS... graph partitioning complete (8746 edge cuts).
Distributing ParMETIS coloring.
Rebalancing vertices.
Rebalancing volume element connectivity.
Rebalancing markers and surface elements.
310564 vertices including ghost points. 
298925 interior elements including halo cells. 
176 triangles.
298749 quadrilaterals.
Establishing MPI communication patterns.
Setting point connectivity.
Renumbering points (Reverse Cuthill McKee Ordering).
Recomputing point connectivity.
Setting element connectivity.
Checking the numerical grid orientation.
All volume elements are correctly orientend.
All surface elements are correctly orientend.
Identifying edges and vertices.
Setting the control volume structure.
Area of the computational grid: 0.00281152.
Searching for the closest normal neighbors to the surfaces.
Storing a mapping from global to local point index.
Compute the surface curvature.
Max K: 25766.3. Mean K: 66.0693. Standard deviation K: 1007.76.
Checking for periodicity.
Computing mesh quality statistics for the dual control volumes.
+--------------------------------------------------------------+
|           Mesh Quality Metric|        Minimum|        Maximum|
+--------------------------------------------------------------+
|    Orthogonality Angle (deg.)|        45.2115|             90|
|     CV Face Area Aspect Ratio|              1|        10.3208|
|           CV Sub-Volume Ratio|              1|        9.85984|
+--------------------------------------------------------------+
Finding max control volume width.
Communicating number of neighbors.
Wetted area = 0 m.
Area projection in the x-plane = 0 m, y-plane = 0 m.
Max. coordinate in the x-direction = -1e+10 m, y-direction = -1e+10 m.
Min. coordinate in the x-direction = 1e+10 m, y-direction = 1e+10 m.
Checking if Euler & Symmetry markers are straight/plane:
Boundary marker axis is a single straight.
Computing wall distances.

-------------------- Solver Preprocessing ( Zone 0 ) --------------------
Incompressible flow: rho_ref, vel_ref, temp_ref, p_ref
are set to 1.0 in order to perform a dimensional calculation.
Force coefficients computed using initial values.
The reference area for force coeffs. is 1 m^2.
The reference length for force coeffs. is 1 m.
The pressure is decomposed into thermodynamic and dynamic components.
The initial value of the dynamic pressure is 0.
Mach number: 0, computed using fluid speed of sound.
For external flows, the initial state is imposed at the far-field.
Angle of attack (deg): 0, computed using the initial velocity.
Side slip angle (deg): 0, computed using the initial velocity.
Reynolds number per meter: 65290.8, computed using initial values.
Reynolds number is a byproduct of inputs only (not used internally).
SI units only. The grid should be dimensional (meters).
Energy equation is active and coupled for variable density.

-- Models:
+------------------------------------------------------------------------------+
|          Viscosity Model|        Conductivity Model|              Fluid Model|
+------------------------------------------------------------------------------+
|       CONSTANT_VISCOSITY|          CONSTANT_PRANDTL|+------------------------------------------------------------------------------+
-- Fluid properties:
+------------------------------------------------------------------------------+
|                  Name|    Dim. value|    Ref. value|      Unit|Non-dim. value|
+------------------------------------------------------------------------------+
|             Viscosity|     1.118e-05|             1|   N.s/m^2|     1.118e-05|
+------------------------------------------------------------------------------+
|        Prandtl (Lam.)|             -|             -|         -|          0.72|
|       Prandtl (Turb.)|             -|             -|         -|           0.9|
+------------------------------------------------------------------------------+
-- Initial and free-stream conditions:
+------------------------------------------------------------------------------+
|                  Name|    Dim. value|    Ref. value|      Unit|Non-dim. value|
+------------------------------------------------------------------------------+
|      Dynamic Pressure|             0|             1|        Pa|             0|
|        Total Pressure|      0.585985|             1|        Pa|      0.585985|
|               Density|       1.17197|             1|    kg/m^3|       1.17197|
|           Temperature|           300|             1|         K|           300|
|            Velocity-X|             1|             1|       m/s|             1|
|            Velocity-Y|             0|             1|       m/s|             0|
|    Velocity Magnitude|             1|             1|       m/s|             1|
+------------------------------------------------------------------------------+
|             Viscosity|     1.795e-05|             1|   N.s/m^2|     1.795e-05|
|          Conductivity|             -|             1|   W/m^2.K|             -|
|     Turb. Kin. Energy|       0.00375|             1|   m^2/s^2|       0.00375|
|     Spec. Dissipation|       24.4841|             1|       1/s|       24.4841|
+------------------------------------------------------------------------------+
|           Mach Number|             -|             -|         -|             0|
|       Reynolds Number|             -|             -|         -|       65290.8|
+------------------------------------------------------------------------------+
Initialize Jacobian structure (Navier-Stokes). MG level: 0.
Initialize Jacobian structure (passive scalar model).
Initialize Jacobian structure (SST model).

------------------- Numerics Preprocessing ( Zone 0 ) -------------------

----------------- Integration Preprocessing ( Zone 0 ) ------------------

------------------- Iteration Preprocessing ( Zone 0 ) ------------------
Euler/Navier-Stokes/RANS fluid iteration.

------------------------------ Begin Solver -----------------------------

Simulation Run using the Single-zone Driver
Initializing passive scalar (initial condition).
initialization = 1 1
+----------------------------------------------------------------+
|  Inner_Iter|      rms[P]|      rms[U]|      rms[V]|      rms[c]|
+----------------------------------------------------------------+
|           0|   -5.114842|   -4.845221|   -4.362645|   -5.719622|
|           1|   -4.993729|   -4.849793|   -4.076042|   -5.299078|
|           2|   -5.394060|   -4.580668|   -4.041645|   -5.363132|
|           3|   -5.500085|   -4.776324|   -4.087867|   -5.471459|
|           4|   -5.682640|   -4.862463|   -4.142623|   -5.520904|
|           5|   -5.624910|   -4.907666|   -4.336643|   -5.552179|
|           6|   -5.715163|   -4.865623|   -4.539893|   -5.582532|
|           7|   -5.763454|   -4.807782|   -4.677962|   -5.631982|
|           8|   -5.795703|   -4.768229|   -4.674441|   -5.690239|
|           9|   -5.796529|   -4.746711|   -4.566198|   -5.733909|
|          10|   -5.770358|   -4.733349|   -4.408355|   -5.752716|
|          11|   -5.747563|   -4.721564|   -4.313082|   -5.750437|
|          12|   -5.752952|   -4.709456|   -4.283383|   -5.736351|
|          13|   -5.782279|   -4.695845|   -4.291426|   -5.719356|
|          14|   -5.819742|   -4.678496|   -4.319121|   -5.705216|
|          15|   -5.854257|   -4.655879|   -4.352673|   -5.695945|
|          16|   -5.882274|   -4.629202|   -4.379042|   -5.690922|
|          17|   -5.903141|   -4.601270|   -4.389336|   -5.688417|
|          18|   -5.917243|   -4.574499|   -4.383127|   -5.686640|
|          19|   -5.926465|   -4.550046|   -4.366817|   -5.684319|
|          20|   -5.933708|   -4.528019|   -4.348209|   -5.680788|
|          21|   -5.941489|   -4.508025|   -4.332775|   -5.675987|
|          22|   -5.950981|   -4.489652|   -4.322727|   -5.670207|
|          23|   -5.962065|   -4.472586|   -4.317759|   -5.663872|
|          24|   -5.973948|   -4.456607|   -4.316275|   -5.657366|
|          25|   -5.985800|   -4.441515|   -4.315158|   -5.650945|
|          26|   -5.997022|   -4.427101|   -4.314280|   -5.644721|
|          27|   -6.007335|   -4.413260|   -4.312913|   -5.638702|
|          28|   -6.016717|   -4.399911|   -4.310935|   -5.632834|
|          29|   -6.025295|   -4.387000|   -4.308617|   -5.627061|
|          30|   -6.033224|   -4.374466|   -4.306356|   -5.621355|
|          31|   -6.040657|   -4.362225|   -4.304509|   -5.615699|
|          32|   -6.047651|   -4.350188|   -4.303190|   -5.610072|
|          33|   -6.054194|   -4.338316|   -4.302263|   -5.604457|
|          34|   -6.060269|   -4.326613|   -4.301417|   -5.598865|
|          35|   -6.065846|   -4.315121|   -4.300377|   -5.593346|
|          36|   -6.070898|   -4.303872|   -4.297947|   -5.587976|
|          37|   -6.075508|   -4.292895|   -4.293757|   -5.582827|
|          38|   -6.079755|   -4.282196|   -4.287989|   -5.577940|
|          39|   -6.083656|   -4.271804|   -4.282426|   -5.573299|
|          40|   -6.087072|   -4.261707|   -4.277625|   -5.568845|
|          41|   -6.089975|   -4.251844|   -4.274010|   -5.564523|
|          42|   -6.092463|   -4.242052|   -4.271150|   -5.560365|
|          43|   -6.094696|   -4.232162|   -4.269298|   -5.556446|
|          44|   -6.096674|   -4.222104|   -4.267699|   -5.552817|
|          45|   -6.098380|   -4.212104|   -4.267515|   -5.549463|
|          46|   -6.099678|   -4.202608|   -4.268683|   -5.546332|
|          47|   -6.100578|   -4.194086|   -4.270116|   -5.543316|
|          48|   -6.101290|   -4.186806|   -4.271305|   -5.540292|
|          49|   -6.101901|   -4.180903|   -4.272985|   -5.537221|
|          50|   -6.101860|   -4.176361|   -4.275081|   -5.534162|
|          51|   -6.101240|   -4.172945|   -4.277614|   -5.531198|
|          52|   -6.100021|   -4.170397|   -4.280705|   -5.528425|
|          53|   -6.098464|   -4.168506|   -4.284388|   -5.525818|
|          54|   -6.097108|   -4.167405|   -4.288455|   -5.523253|
|          55|   -6.095684|   -4.167053|   -4.292505|   -5.520537|
|          56|   -6.094125|   -4.167342|   -4.296182|   -5.517410|
|          57|   -6.092413|   -4.168124|   -4.299039|   -5.513673|
|          58|   -6.090017|   -4.169126|   -4.300560|   -5.509216|
|          59|   -6.086151|   -4.169822|   -4.300449|   -5.503991|
|          60|   -6.080490|   -4.169531|   -4.298690|   -5.497967|
|          61|   -6.072988|   -4.167660|   -4.295379|   -5.491110|
|          62|   -6.063784|   -4.163897|   -4.290085|   -5.483420|
|          63|   -6.052703|   -4.158180|   -4.282768|   -5.474837|
|          64|   -6.039447|   -4.150970|   -4.272540|   -5.465274|
|          65|   -6.023732|   -4.142768|   -4.258211|   -5.454624|
|          66|   -6.004767|   -4.134093|   -4.238645|   -5.442759|
|          67|   -5.982344|   -4.125037|   -4.213117|   -5.429636|
|          68|   -5.956234|   -4.115710|   -4.181992|   -5.415417|
|          69|   -5.927714|   -4.106537|   -4.146644|   -5.400418|
|          70|   -5.897707|   -4.097606|   -4.109145|   -5.385336|
|          71|   -5.865612|   -4.088497|   -4.072558|   -5.371561|
|          72|   -5.834197|   -4.078766|   -4.040461|   -5.360961|
|          73|   -5.807393|   -4.067410|   -4.015692|   -5.355050|
|          74|   -5.786708|   -4.053184|   -4.000611|   -5.354199|
|          75|   -5.773620|   -4.036412|   -3.997054|   -5.357520|
|          76|   -5.766589|   -4.020059|   -4.003961|   -5.362660|
|          77|   -5.763671|   -4.006640|   -4.015275|   -5.368382|
|          78|   -5.766676|   -3.998608|   -4.026273|   -5.373987|
|          79|   -5.770502|   -3.994674|   -4.036225|   -5.379096|
|          80|   -5.774154|   -3.992583|   -4.045101|   -5.384053|
|          81|   -5.778800|   -3.990713|   -4.053531|   -5.388563|
|          82|   -5.782870|   -3.988492|   -4.061391|   -5.392245|
|          83|   -5.783102|   -3.984449|   -4.069323|   -5.395356|
|          84|   -5.779133|   -3.977437|   -4.076781|   -5.398377|
|          85|   -5.773144|   -3.969960|   -4.080603|   -5.399936|
|          86|   -5.765815|   -3.962220|   -4.078067|   -5.398756|
|          87|   -5.758368|   -3.954259|   -4.068063|   -5.393956|
|          88|   -5.749649|   -3.946726|   -4.048945|   -5.384718|
|          89|   -5.736503|   -3.939752|   -4.021839|   -5.372649|
|          90|   -5.714170|   -3.932121|   -3.993044|   -5.361175|
|          91|   -5.690682|   -3.922991|   -3.969239|   -5.353343|
|          92|   -5.672865|   -3.914829|   -3.954391|   -5.350139|
|          93|   -5.665351|   -3.910275|   -3.947449|   -5.350823|
|          94|   -5.666135|   -3.909649|   -3.947800|   -5.354089|
|          95|   -5.673369|   -3.911746|   -3.952946|   -5.358836|
|          96|   -5.683229|   -3.914357|   -3.960294|   -5.364711|
|          97|   -5.694437|   -3.915704|   -3.968207|   -5.371155|
|          98|   -5.706866|   -3.916017|   -3.976801|   -5.377749|
|          99|   -5.720452|   -3.916414|   -3.985992|   -5.384244|
|         100|   -5.735013|   -3.917562|   -3.996186|   -5.390352|
|         101|   -5.749898|   -3.920192|   -4.007792|   -5.395877|
|         102|   -5.764879|   -3.924390|   -4.020689|   -5.401290|
|         103|   -5.779702|   -3.930036|   -4.033827|   -5.406247|
|         104|   -5.795918|   -3.937021|   -4.046431|   -5.409575|
|         105|   -5.813175|   -3.945159|   -4.058020|   -5.410561|
|         106|   -5.828508|   -3.954486|   -4.066867|   -5.408669|
|         107|   -5.837836|   -3.964570|   -4.071826|   -5.404064|
|         108|   -5.835194|   -3.973827|   -4.073426|   -5.398295|
|         109|   -5.825919|   -3.980420|   -4.072149|   -5.391967|
|         110|   -5.811950|   -3.983664|   -4.070198|   -5.385533|
|         111|   -5.797208|   -3.985350|   -4.067738|   -5.380434|
|         112|   -5.787822|   -3.985582|   -4.064430|   -5.375757|
|         113|   -5.780058|   -3.985062|   -4.062118|   -5.372050|
|         114|   -5.775142|   -3.985276|   -4.061292|   -5.369757|
|         115|   -5.772424|   -3.986201|   -4.061995|   -5.368644|
|         116|   -5.771259|   -3.987700|   -4.064733|   -5.369043|
|         117|   -5.773551|   -3.989993|   -4.069813|   -5.370910|
|         118|   -5.777610|   -3.993465|   -4.076982|   -5.374287|
|         119|   -5.783404|   -3.997964|   -4.085172|   -5.379208|
|         120|   -5.790401|   -4.003841|   -4.093396|   -5.385326|
|         121|   -5.797303|   -4.010875|   -4.099981|   -5.392408|
|         122|   -5.804772|   -4.018989|   -4.103697|   -5.399962|
|         123|   -5.811178|   -4.027775|   -4.104358|   -5.407366|
|         124|   -5.815304|   -4.036545|   -4.102548|   -5.414478|
|         125|   -5.817378|   -4.045292|   -4.098407|   -5.421461|
|         126|   -5.815905|   -4.052972|   -4.092823|   -5.428382|
|         127|   -5.813386|   -4.059155|   -4.086947|   -5.435754|
|         128|   -5.811942|   -4.064725|   -4.081715|   -5.443590|
|         129|   -5.813679|   -4.069990|   -4.076485|   -5.451847|
|         130|   -5.823858|   -4.074774|   -4.072014|   -5.459134|
|         131|   -5.836549|   -4.080658|   -4.069874|   -5.465373|
|         132|   -5.849094|   -4.086386|   -4.069450|   -5.470353|
|         133|   -5.859351|   -4.091253|   -4.070396|   -5.474317|
|         134|   -5.868384|   -4.095386|   -4.072164|   -5.477211|
|         135|   -5.874267|   -4.098447|   -4.074328|   -5.479135|
|         136|   -5.878009|   -4.100433|   -4.076109|   -5.480197|
|         137|   -5.879196|   -4.101534|   -4.077179|   -5.480607|
|         138|   -5.877917|   -4.101990|   -4.077480|   -5.480696|
|         139|   -5.875290|   -4.102033|   -4.076890|   -5.480792|
|         140|   -5.870982|   -4.101411|   -4.076041|   -5.481318|
|         141|   -5.867545|   -4.100405|   -4.075689|   -5.482707|
|         142|   -5.866175|   -4.099946|   -4.076004|   -5.484712|
|         143|   -5.868684|   -4.100493|   -4.076574|   -5.487197|
|         144|   -5.873842|   -4.102706|   -4.077783|   -5.489730|
|         145|   -5.880253|   -4.106219|   -4.079411|   -5.492155|
|         146|   -5.887687|   -4.109907|   -4.081110|   -5.494496|
|         147|   -5.894931|   -4.113741|   -4.082866|   -5.496707|
|         148|   -5.901664|   -4.117408|   -4.084456|   -5.498570|
|         149|   -5.907516|   -4.120649|   -4.085960|   -5.500137|
|         150|   -5.913622|   -4.123814|   -4.087018|   -5.501069|
|         151|   -5.917596|   -4.126528|   -4.087466|   -5.501350|
|         152|   -5.919697|   -4.128389|   -4.087101|   -5.501388|
|         153|   -5.920215|   -4.129817|   -4.086437|   -5.501454|
|         154|   -5.919309|   -4.130773|   -4.085819|   -5.501731|
|         155|   -5.918696|   -4.131211|   -4.085812|   -5.502511|
|         156|   -5.919970|   -4.132012|   -4.086373|   -5.503415|
|         157|   -5.924912|   -4.133925|   -4.087449|   -5.504174|
|         158|   -5.930788|   -4.136648|   -4.089367|   -5.504700|
|         159|   -5.937591|   -4.140410|   -4.091618|   -5.504822|
|         160|   -5.942176|   -4.143690|   -4.093882|   -5.504569|
|         161|   -5.946107|   -4.145785|   -4.095820|   -5.504039|
|         162|   -5.948725|   -4.147492|   -4.097542|   -5.502999|
|         163|   -5.950800|   -4.148565|   -4.098689|   -5.501261|
|         164|   -5.950518|   -4.148705|   -4.098997|   -5.498819|
|         165|   -5.949378|   -4.148065|   -4.098272|   -5.495884|
|         166|   -5.945374|   -4.146383|   -4.096783|   -5.492650|
|         167|   -5.940025|   -4.143499|   -4.094512|   -5.489551|
|         168|   -5.934861|   -4.139780|   -4.091376|   -5.486717|
|         169|   -5.930526|   -4.135550|   -4.088104|   -5.484228|
|         170|   -5.928869|   -4.131344|   -4.085042|   -5.481960|
|         171|   -5.929932|   -4.128109|   -4.082400|   -5.479576|
|         172|   -5.932821|   -4.125582|   -4.080129|   -5.476886|
|         173|   -5.935376|   -4.123195|   -4.078318|   -5.473931|
|         174|   -5.937373|   -4.120674|   -4.076563|   -5.470764|
|         175|   -5.938601|   -4.117123|   -4.074759|   -5.467494|
|         176|   -5.939586|   -4.112988|   -4.072899|   -5.464033|
|         177|   -5.939917|   -4.108369|   -4.070676|   -5.460467|
|         178|   -5.940774|   -4.103276|   -4.068102|   -5.456662|
|         179|   -5.940560|   -4.097795|   -4.065158|   -5.452613|
|         180|   -5.940177|   -4.092001|   -4.061484|   -5.448449|
|         181|   -5.939247|   -4.086180|   -4.057196|   -5.444134|
|         182|   -5.936904|   -4.080000|   -4.052431|   -5.439849|
|         183|   -5.934898|   -4.073775|   -4.047267|   -5.435781|
|         184|   -5.933671|   -4.067694|   -4.042114|   -5.432088|
|         185|   -5.934079|   -4.062255|   -4.037083|   -5.428655|
|         186|   -5.935587|   -4.057531|   -4.032257|   -5.425365|
|         187|   -5.939261|   -4.053452|   -4.027739|   -5.422143|
|         188|   -5.944130|   -4.050564|   -4.023754|   -5.418886|
|         189|   -5.949432|   -4.048546|   -4.020254|   -5.415580|
|         190|   -5.954044|   -4.046635|   -4.017173|   -5.412285|
|         191|   -5.957894|   -4.044880|   -4.014513|   -5.409098|
|         192|   -5.961013|   -4.043254|   -4.012220|   -5.406010|
|         193|   -5.963754|   -4.041504|   -4.010193|   -5.403098|
|         194|   -5.965984|   -4.039781|   -4.008419|   -5.400290|
|         195|   -5.967167|   -4.037969|   -4.006998|   -5.397627|
|         196|   -5.968262|   -4.036133|   -4.005822|   -5.395109|
|         197|   -5.968426|   -4.034362|   -4.004854|   -5.392720|
|         198|   -5.967559|   -4.032441|   -4.003906|   -5.390496|
|         199|   -5.967028|   -4.030462|   -4.002865|   -5.388570|
|         200|   -5.966422|   -4.028672|   -4.001784|   -5.386933|
|         201|   -5.964773|   -4.026782|   -4.000738|   -5.385664|
|         202|   -5.963995|   -4.024703|   -3.999781|   -5.384817|
|         203|   -5.964831|   -4.022842|   -3.999228|   -5.384313|
|         204|   -5.966526|   -4.021599|   -3.999023|   -5.384056|
|         205|   -5.969547|   -4.021025|   -3.998868|   -5.384025|
|         206|   -5.973166|   -4.020857|   -3.998916|   -5.384232|
|         207|   -5.977269|   -4.021132|   -3.999066|   -5.384631|
|         208|   -5.981261|   -4.021726|   -3.999262|   -5.385238|
|         209|   -5.985312|   -4.022317|   -3.999355|   -5.386054|
|         210|   -5.989088|   -4.022816|   -3.999415|   -5.387081|
|         211|   -5.992729|   -4.023143|   -3.999497|   -5.388278|
|         212|   -5.996182|   -4.023208|   -3.999655|   -5.389659|
|         213|   -5.999291|   -4.022966|   -3.999826|   -5.391172|
|         214|   -6.002225|   -4.022505|   -3.999926|   -5.392768|
|         215|   -6.005589|   -4.021921|   -3.999908|   -5.394475|
|         216|   -6.009228|   -4.021276|   -3.999799|   -5.396273|
|         217|   -6.012784|   -4.020408|   -3.999720|   -5.398187|
|         218|   -6.016511|   -4.019284|   -3.999652|   -5.400274|
|         219|   -6.020630|   -4.017848|   -3.999658|   -5.402557|
|         220|   -6.025193|   -4.016243|   -3.999899|   -5.405003|
|         221|   -6.029901|   -4.014274|   -4.000604|   -5.407642|
|         222|   -6.035330|   -4.012073|   -4.001764|   -5.410440|
|         223|   -6.041693|   -4.010195|   -4.003368|   -5.413372|
|         224|   -6.049055|   -4.008559|   -4.005396|   -5.416425|
|         225|   -6.056755|   -4.006858|   -4.007880|   -5.419579|
|         226|   -6.064585|   -4.005166|   -4.010838|   -5.422827|
|         227|   -6.072322|   -4.003608|   -4.014303|   -5.426188|
|         228|   -6.080271|   -4.002216|   -4.017977|   -5.429624|
|         229|   -6.087916|   -4.000598|   -4.021870|   -5.433153|
|         230|   -6.096025|   -3.998911|   -4.025937|   -5.436751|
|         231|   -6.104827|   -3.997329|   -4.030199|   -5.440403|
|         232|   -6.113744|   -3.995879|   -4.034643|   -5.444078|
|         233|   -6.122964|   -3.994545|   -4.039164|   -5.447743|
|         234|   -6.131375|   -3.993203|   -4.043830|   -5.451409|
|         235|   -6.139429|   -3.991816|   -4.048520|   -5.455083|
|         236|   -6.148327|   -3.990533|   -4.053267|   -5.458834|
|         237|   -6.158366|   -3.989527|   -4.058084|   -5.462637|
|         238|   -6.168407|   -3.988698|   -4.063068|   -5.466470|
|         239|   -6.177471|   -3.987900|   -4.068161|   -5.470356|
|         240|   -6.186177|   -3.986973|   -4.073182|   -5.474352|
|         241|   -6.194696|   -3.986224|   -4.078156|   -5.478374|
|         242|   -6.203580|   -3.985368|   -4.083010|   -5.482511|
|         243|   -6.211158|   -3.984725|   -4.087737|   -5.486599|
|         244|   -6.218729|   -3.984076|   -4.092298|   -5.490744|
|         245|   -6.224857|   -3.983480|   -4.096633|   -5.494849|
|         246|   -6.230052|   -3.982916|   -4.100727|   -5.498950|
|         247|   -6.234330|   -3.982198|   -4.104652|   -5.503043|
|         248|   -6.238445|   -3.981718|   -4.108140|   -5.507068|
|         249|   -6.242053|   -3.981004|   -4.111202|   -5.511109|
|         250|   -6.244643|   -3.980277|   -4.113826|   -5.515052|
|         251|   -6.247689|   -3.979273|   -4.116252|   -5.519060|
|         252|   -6.250595|   -3.978472|   -4.118402|   -5.522950|
|         253|   -6.254271|   -3.977564|   -4.120375|   -5.526912|
|         254|   -6.257563|   -3.976723|   -4.122000|   -5.530743|
|         255|   -6.261787|   -3.975675|   -4.123439|   -5.534622|
|         256|   -6.265902|   -3.974599|   -4.124610|   -5.538361|
|         257|   -6.271155|   -3.973341|   -4.125788|   -5.542103|
|         258|   -6.275415|   -3.972017|   -4.127009|   -5.545686|
|         259|   -6.279493|   -3.970443|   -4.128239|   -5.549236|
|         260|   -6.282064|   -3.968717|   -4.129384|   -5.552602|
|         261|   -6.284086|   -3.966709|   -4.130485|   -5.555894|
|         262|   -6.285430|   -3.964511|   -4.131537|   -5.559099|
|         263|   -6.284970|   -3.962263|   -4.132436|   -5.562070|
|         264|   -6.282988|   -3.959903|   -4.133098|   -5.564980|
|         265|   -6.280975|   -3.957584|   -4.133602|   -5.567748|
|         266|   -6.277304|   -3.955357|   -4.133991|   -5.570453|
|         267|   -6.272605|   -3.953283|   -4.133869|   -5.573034|
|         268|   -6.268382|   -3.951329|   -4.133478|   -5.575674|
|         269|   -6.263590|   -3.949747|   -4.132643|   -5.578271|
|         270|   -6.259429|   -3.948479|   -4.131279|   -5.580855|
|         271|   -6.256727|   -3.947467|   -4.129746|   -5.583496|
|         272|   -6.253751|   -3.946759|   -4.127943|   -5.586072|
|         273|   -6.253326|   -3.946195|   -4.126157|   -5.588816|
|         274|   -6.253984|   -3.946071|   -4.124471|   -5.591370|
|         275|   -6.256534|   -3.946263|   -4.123221|   -5.594054|
|         276|   -6.259770|   -3.946936|   -4.122512|   -5.596573|
|         277|   -6.265000|   -3.947941|   -4.122589|   -5.599166|
|         278|   -6.270494|   -3.949330|   -4.123379|   -5.601602|
|         279|   -6.276211|   -3.950785|   -4.124957|   -5.604050|
|         280|   -6.282391|   -3.952416|   -4.127142|   -5.606487|
|         281|   -6.287472|   -3.954283|   -4.129877|   -5.608879|
|         282|   -6.291735|   -3.956293|   -4.133081|   -5.611349|
|         283|   -6.294726|   -3.958349|   -4.136660|   -5.613859|
|         284|   -6.296024|   -3.960303|   -4.140607|   -5.616375|
|         285|   -6.296678|   -3.962052|   -4.144762|   -5.618966|
|         286|   -6.295271|   -3.963687|   -4.148944|   -5.621542|
|         287|   -6.293644|   -3.965002|   -4.153347|   -5.624217|
|         288|   -6.289923|   -3.966090|   -4.157682|   -5.626705|
|         289|   -6.285193|   -3.966604|   -4.161903|   -5.629303|
|         290|   -6.279140|   -3.966567|   -4.165311|   -5.631715|
|         291|   -6.272797|   -3.965783|   -4.167483|   -5.633992|
|         292|   -6.264720|   -3.964458|   -4.167907|   -5.636193|
|         293|   -6.254946|   -3.962423|   -4.166203|   -5.638146|
|         294|   -6.246137|   -3.959787|   -4.162159|   -5.640086|
|         295|   -6.238166|   -3.956942|   -4.155668|   -5.641899|
|         296|   -6.230623|   -3.954142|   -4.147038|   -5.643434|
|         297|   -6.224530|   -3.951532|   -4.136803|   -5.644684|
|         298|   -6.219428|   -3.949294|   -4.125452|   -5.645639|
|         299|   -6.214712|   -3.947502|   -4.113528|   -5.646241|
|         300|   -6.210065|   -3.946219|   -4.101429|   -5.646504|
|         301|   -6.205404|   -3.945572|   -4.089471|   -5.646405|
|         302|   -6.200582|   -3.945537|   -4.077799|   -5.646014|
|         303|   -6.195662|   -3.946054|   -4.066474|   -5.645388|
|         304|   -6.190583|   -3.947173|   -4.055832|   -5.644592|
|         305|   -6.184934|   -3.949004|   -4.046356|   -5.643728|
|         306|   -6.179318|   -3.951615|   -4.038259|   -5.642915|
|         307|   -6.173156|   -3.955021|   -4.031696|   -5.642196|
|         308|   -6.166612|   -3.959129|   -4.026636|   -5.641662|
|         309|   -6.159736|   -3.963866|   -4.023050|   -5.641348|
|         310|   -6.152698|   -3.969148|   -4.020779|   -5.641220|
|         311|   -6.145296|   -3.974898|   -4.019760|   -5.641296|
|         312|   -6.137318|   -3.981055|   -4.019819|   -5.641577|
|         313|   -6.129093|   -3.987650|   -4.020800|   -5.642142|
|         314|   -6.120357|   -3.994717|   -4.022744|   -5.643105|
|         315|   -6.111388|   -4.002349|   -4.025740|   -5.644666|
|         316|   -6.102660|   -4.010507|   -4.029989|   -5.647015|
|         317|   -6.094480|   -4.019205|   -4.035548|   -5.650307|
|         318|   -6.087543|   -4.028418|   -4.042308|   -5.654555|
|         319|   -6.081885|   -4.038299|   -4.050220|   -5.659758|
|         320|   -6.077406|   -4.048742|   -4.059244|   -5.665851|
|         321|   -6.073802|   -4.059610|   -4.069347|   -5.672798|
|         322|   -6.070896|   -4.070722|   -4.080259|   -5.680500|
|         323|   -6.069012|   -4.081659|   -4.091022|   -5.688919|
|         324|   -6.068372|   -4.092240|   -4.101743|   -5.697669|
|         325|   -6.067662|   -4.102484|   -4.112541|   -5.706604|
|         326|   -6.066484|   -4.112314|   -4.123234|   -5.715629|
|         327|   -6.064694|   -4.121678|   -4.133575|   -5.724487|
|         328|   -6.062059|   -4.130568|   -4.143338|   -5.733069|
|         329|   -6.058641|   -4.138936|   -4.152321|   -5.741319|
|         330|   -6.054411|   -4.146655|   -4.160394|   -5.749208|
|         331|   -6.049401|   -4.153588|   -4.167533|   -5.756726|
|         332|   -6.043762|   -4.159685|   -4.173755|   -5.763927|
|         333|   -6.037749|   -4.165048|   -4.179107|   -5.770891|
|         334|   -6.031529|   -4.169807|   -4.183640|   -5.777684|
|         335|   -6.025307|   -4.174066|   -4.187343|   -5.784271|
|         336|   -6.019699|   -4.177964|   -4.190263|   -5.790856|
|         337|   -6.014679|   -4.181752|   -4.192392|   -5.797394|
|         338|   -6.010032|   -4.185559|   -4.193732|   -5.803891|
|         339|   -6.006074|   -4.189495|   -4.193161|   -5.810371|
|         340|   -6.003253|   -4.193713|   -4.189676|   -5.816710|
|         341|   -6.001321|   -4.198076|   -4.185439|   -5.822682|
|         342|   -6.000012|   -4.202438|   -4.181388|   -5.828192|
|         343|   -5.998945|   -4.206687|   -4.177675|   -5.832777|
|         344|   -5.997782|   -4.210576|   -4.174316|   -5.835957|
|         345|   -5.996360|   -4.213903|   -4.171274|   -5.837717|
|         346|   -5.994651|   -4.216690|   -4.168512|   -5.838173|
|         347|   -5.992712|   -4.218966|   -4.166030|   -5.838212|
|         348|   -5.990634|   -4.220891|   -4.163833|   -5.837697|
|         349|   -5.988388|   -4.222709|   -4.161895|   -5.836272|
|         350|   -5.986091|   -4.224593|   -4.160169|   -5.834023|
|         351|   -5.983837|   -4.226732|   -4.158627|   -5.830943|
|         352|   -5.981662|   -4.229236|   -4.157204|   -5.826940|
|         353|   -5.979492|   -4.232106|   -4.155824|   -5.822093|
|         354|   -5.977386|   -4.235349|   -4.154415|   -5.816554|
|         355|   -5.975490|   -4.239046|   -4.152999|   -5.810472|
|         356|   -5.973806|   -4.243297|   -4.151627|   -5.803971|
|         357|   -5.972278|   -4.247988|   -4.150389|   -5.797189|
|         358|   -5.970776|   -4.252840|   -4.149406|   -5.790290|
|         359|   -5.969250|   -4.257606|   -4.148764|   -5.783402|
|         360|   -5.967616|   -4.262011|   -4.148473|   -5.776631|
|         361|   -5.965837|   -4.265807|   -4.148485|   -5.770026|
|         362|   -5.963874|   -4.268903|   -4.148727|   -5.763621|
|         363|   -5.961708|   -4.271289|   -4.149126|   -5.757438|
|         364|   -5.959340|   -4.272915|   -4.149623|   -5.751551|
|         365|   -5.956775|   -4.273806|   -4.150140|   -5.746025|
|         366|   -5.954099|   -4.274113|   -4.150592|   -5.740974|
|         367|   -5.951349|   -4.274017|   -4.150943|   -5.736570|
|         368|   -5.948731|   -4.273624|   -4.151170|   -5.733028|
|         369|   -5.946520|   -4.273069|   -4.151324|   -5.730526|
|         370|   -5.944793|   -4.272504|   -4.151411|   -5.729032|
|         371|   -5.943418|   -4.271984|   -4.151265|   -5.728498|
|         372|   -5.942523|   -4.271556|   -4.151045|   -5.728865|
|         373|   -5.942227|   -4.271341|   -4.150902|   -5.730067|
|         374|   -5.942461|   -4.271474|   -4.150700|   -5.731963|
|         375|   -5.943106|   -4.271926|   -4.150572|   -5.734463|
|         376|   -5.944145|   -4.272613|   -4.150607|   -5.737406|
|         377|   -5.945509|   -4.273483|   -4.150931|   -5.740737|
|         378|   -5.947231|   -4.274466|   -4.151613|   -5.744351|
|         379|   -5.949257|   -4.275466|   -4.152609|   -5.748107|
|         380|   -5.951504|   -4.276293|   -4.154032|   -5.751993|
|         381|   -5.953893|   -4.276827|   -4.155744|   -5.755842|
|         382|   -5.956329|   -4.276950|   -4.157814|   -5.759666|
|         383|   -5.958936|   -4.276645|   -4.160275|   -5.763578|
|         384|   -5.961757|   -4.275963|   -4.163110|   -5.767287|
|         385|   -5.964476|   -4.274714|   -4.166345|   -5.770916|
|         386|   -5.967334|   -4.272896|   -4.169883|   -5.774546|
|         387|   -5.970429|   -4.270555|   -4.173660|   -5.778139|
|         388|   -5.973500|   -4.267695|   -4.177627|   -5.781594|
|         389|   -5.976745|   -4.264349|   -4.181685|   -5.784914|
|         390|   -5.980163|   -4.260596|   -4.185790|   -5.788025|
|         391|   -5.983677|   -4.256499|   -4.189873|   -5.790828|
|         392|   -5.987323|   -4.252216|   -4.194057|   -5.793226|
|         393|   -5.990985|   -4.247925|   -4.198227|   -5.795067|
|         394|   -5.994712|   -4.243793|   -4.202364|   -5.796245|
|         395|   -5.998427|   -4.240014|   -4.206466|   -5.796706|
|         396|   -6.002014|   -4.236735|   -4.210472|   -5.796381|
|         397|   -6.005449|   -4.234043|   -4.214346|   -5.795209|
|         398|   -6.008826|   -4.231881|   -4.215765|   -5.793367|
|         399|   -6.011952|   -4.230105|   -4.213497|   -5.791059|
|         400|   -6.014804|   -4.228676|   -4.210709|   -5.788395|
|         401|   -6.017775|   -4.227478|   -4.208449|   -5.785564|
|         402|   -6.020733|   -4.226467|   -4.207006|   -5.782489|
|         403|   -6.023834|   -4.225383|   -4.206091|   -5.779344|
|         404|   -6.026868|   -4.223967|   -4.205791|   -5.776070|
|         405|   -6.029897|   -4.222107|   -4.206659|   -5.772848|
|         406|   -6.032794|   -4.220025|   -4.208524|   -5.769536|
|         407|   -6.035821|   -4.217885|   -4.210704|   -5.766065|
|         408|   -6.038776|   -4.215805|   -4.212944|   -5.762285|
|         409|   -6.041284|   -4.213743|   -4.215386|   -5.758626|
|         410|   -6.043788|   -4.211540|   -4.215932|   -5.754567|
|         411|   -6.046268|   -4.209512|   -4.217564|   -5.750308|
|         412|   -6.048741|   -4.207736|   -4.220985|   -5.745501|
|         413|   -6.051076|   -4.206130|   -4.225831|   -5.740705|
|         414|   -6.053152|   -4.204426|   -4.230818|   -5.735897|
|         415|   -6.055620|   -4.202461|   -4.235612|   -5.730715|
|         416|   -6.058110|   -4.200202|   -4.240209|   -5.724890|
|         417|   -6.059797|   -4.197473|   -4.244426|   -5.718936|
|         418|   -6.061425|   -4.194273|   -4.248174|   -5.712702|
|         419|   -6.062210|   -4.190766|   -4.251597|   -5.706151|
|         420|   -6.062736|   -4.186850|   -4.254700|   -5.699112|
|         421|   -6.062479|   -4.182614|   -4.257567|   -5.691828|
|         422|   -6.061070|   -4.177993|   -4.260045|   -5.684266|
|         423|   -6.058623|   -4.172970|   -4.261929|   -5.676672|
|         424|   -6.054823|   -4.167489|   -4.263236|   -5.669105|
|         425|   -6.050413|   -4.161636|   -4.263908|   -5.661572|
|         426|   -6.045152|   -4.155337|   -4.263883|   -5.654445|
|         427|   -6.039583|   -4.148531|   -4.263199|   -5.647753|
|         428|   -6.033731|   -4.141265|   -4.261657|   -5.641811|
|         429|   -6.028020|   -4.133483|   -4.259180|   -5.636644|
|         430|   -6.022741|   -4.125314|   -4.255791|   -5.632301|
|         431|   -6.018090|   -4.116894|   -4.251465|   -5.628533|
|         432|   -6.013980|   -4.108277|   -4.246150|   -5.624999|
|         433|   -6.010912|   -4.099603|   -4.239622|   -5.621526|
|         434|   -6.008634|   -4.090912|   -4.231776|   -5.617918|
|         435|   -6.007080|   -4.082358|   -4.223027|   -5.614025|
|         436|   -6.005333|   -4.074078|   -4.213612|   -5.609688|
|         437|   -6.003462|   -4.066272|   -4.203522|   -5.604843|
|         438|   -6.001225|   -4.058982|   -4.192810|   -5.599466|
|         439|   -5.998656|   -4.052185|   -4.181595|   -5.593665|
|         440|   -5.995802|   -4.045971|   -4.170193|   -5.587659|
|         441|   -5.992449|   -4.040525|   -4.158995|   -5.581795|
|         442|   -5.989202|   -4.035803|   -4.148429|   -5.576413|
|         443|   -5.986331|   -4.031521|   -4.138715|   -5.571707|
|         444|   -5.984024|   -4.027447|   -4.129653|   -5.567859|
|         445|   -5.982618|   -4.023485|   -4.120958|   -5.565180|
|         446|   -5.983151|   -4.019821|   -4.112623|   -5.563593|
|         447|   -5.984873|   -4.016675|   -4.105092|   -5.562967|
|         448|   -5.987361|   -4.014031|   -4.098338|   -5.563204|
|         449|   -5.990221|   -4.011388|   -4.092303|   -5.564121|
|         450|   -5.992841|   -4.008299|   -4.087047|   -5.565370|
|         451|   -5.994618|   -4.004938|   -4.083011|   -5.566738|
|         452|   -5.995306|   -4.002190|   -4.079897|   -5.568355|
|         453|   -5.994820|   -4.000488|   -4.077380|   -5.570456|
|         454|   -5.994380|   -3.998935|   -4.075844|   -5.573273|
|         455|   -5.995420|   -3.997259|   -4.076139|   -5.576897|
|         456|   -5.999564|   -3.995983|   -4.079510|   -5.581353|
|         457|   -6.008411|   -3.995472|   -4.085789|   -5.586679|
|         458|   -6.026155|   -3.995623|   -4.094245|   -5.592295|
|         459|   -6.048817|   -3.996833|   -4.105174|   -5.597785|
|         460|   -6.073301|   -3.999598|   -4.117760|   -5.602713|
|         461|   -6.098342|   -4.003448|   -4.130592|   -5.606809|
|         462|   -6.122393|   -4.006829|   -4.142059|   -5.609817|
|         463|   -6.141558|   -4.009135|   -4.151816|   -5.611894|
|         464|   -6.155192|   -4.010526|   -4.160093|   -5.613334|
|         465|   -6.164309|   -4.011281|   -4.166972|   -5.614063|
|         466|   -6.171439|   -4.011588|   -4.172772|   -5.613769|
|         467|   -6.176477|   -4.011749|   -4.178052|   -5.613683|
|         468|   -6.180272|   -4.011987|   -4.183288|   -5.612867|
|         469|   -6.183522|   -4.012322|   -4.188790|   -5.611529|
|         470|   -6.185578|   -4.012938|   -4.194784|   -5.609882|
|         471|   -6.190844|   -4.013635|   -4.201419|   -5.607744|
|         472|   -6.194967|   -4.014273|   -4.208327|   -5.605536|
|         473|   -6.197432|   -4.014818|   -4.214857|   -5.603382|
|         474|   -6.199172|   -4.015143|   -4.220646|   -5.601298|
|         475|   -6.198987|   -4.015208|   -4.225539|   -5.599440|
|         476|   -6.195158|   -4.014998|   -4.229785|   -5.596247|
|         477|   -6.189507|   -4.014601|   -4.233085|   -5.594122|
|         478|   -6.183789|   -4.013968|   -4.235243|   -5.591340|
|         479|   -6.171290|   -4.012943|   -4.235915|   -5.588777|
|         480|   -6.165674|   -4.011753|   -4.235244|   -5.586086|
|         481|   -6.156387|   -4.010110|   -4.233883|   -5.583374|
|         482|   -6.146358|   -4.008293|   -4.231194|   -5.580909|
|         483|   -6.136290|   -4.006482|   -4.227840|   -5.579175|
|         484|   -6.126693|   -4.005139|   -4.224038|   -5.577727|
|         485|   -6.119277|   -4.004273|   -4.219630|   -5.576652|
|         486|   -6.111478|   -4.003670|   -4.217573|   -5.577020|
|         487|   -6.105934|   -4.002632|   -4.218335|   -5.578085|
|         488|   -6.108145|   -4.001953|   -4.220323|   -5.579699|
|         489|   -6.116326|   -4.002959|   -4.223844|   -5.581524|
|         490|   -6.125870|   -4.005984|   -4.228045|   -5.583550|
|         491|   -6.135727|   -4.009229|   -4.231964|   -5.585790|
|         492|   -6.144971|   -4.012312|   -4.234924|   -5.588077|
|         493|   -6.150980|   -4.015827|   -4.237361|   -5.590262|
|         494|   -6.154577|   -4.019717|   -4.238895|   -5.592318|
|         495|   -6.155205|   -4.023525|   -4.239356|   -5.594450|
|         496|   -6.154322|   -4.027029|   -4.239096|   -5.596816|
|         497|   -6.153353|   -4.030359|   -4.238521|   -5.599410|
|         498|   -6.152365|   -4.033668|   -4.237879|   -5.602101|
|         499|   -6.151387|   -4.036867|   -4.236649|   -5.604678|
|         500|   -6.151763|   -4.039933|   -4.234170|   -5.606839|
|         501|   -6.152983|   -4.042713|   -4.231175|   -5.608436|
|         502|   -6.152846|   -4.044815|   -4.227605|   -5.609651|
|         503|   -6.150992|   -4.046215|   -4.223494|   -5.610752|
|         504|   -6.148465|   -4.047191|   -4.218994|   -5.611984|
|         505|   -6.146404|   -4.048174|   -4.214187|   -5.613469|
|         506|   -6.145411|   -4.049533|   -4.209670|   -5.615194|
|         507|   -6.144949|   -4.051513|   -4.205692|   -5.617110|
|         508|   -6.144267|   -4.054288|   -4.202134|   -5.619127|
|         509|   -6.143124|   -4.057957|   -4.198724|   -5.621131|
|         510|   -6.141444|   -4.062499|   -4.195238|   -5.623040|
|         511|   -6.139119|   -4.067726|   -4.191558|   -5.624829|
|         512|   -6.136249|   -4.073378|   -4.187606|   -5.626508|
|         513|   -6.133125|   -4.079187|   -4.183368|   -5.628098|
|         514|   -6.129989|   -4.084889|   -4.178895|   -5.629623|
|         515|   -6.127105|   -4.090273|   -4.174294|   -5.631108|
|         516|   -6.124648|   -4.095192|   -4.169728|   -5.632567|
|         517|   -6.122721|   -4.099556|   -4.165367|   -5.634007|
|         518|   -6.121330|   -4.103325|   -4.161315|   -5.635431|
|         519|   -6.120378|   -4.106514|   -4.157643|   -5.636844|
|         520|   -6.119668|   -4.109123|   -4.154408|   -5.638253|
|         521|   -6.118965|   -4.111173|   -4.151640|   -5.639667|
|         522|   -6.118039|   -4.112694|   -4.149343|   -5.641093|
|         523|   -6.116700|   -4.113726|   -4.147547|   -5.642541|
|         524|   -6.114862|   -4.114356|   -4.146310|   -5.644016|
|         525|   -6.112486|   -4.114714|   -4.145657|   -5.645520|
|         526|   -6.109670|   -4.114912|   -4.145529|   -5.647055|
|         527|   -6.106576|   -4.115008|   -4.145817|   -5.648618|
|         528|   -6.103474|   -4.115008|   -4.146356|   -5.650217|
|         529|   -6.100855|   -4.114836|   -4.147045|   -5.651855|
|         530|   -6.099294|   -4.114703|   -4.147684|   -5.653531|
|         531|   -6.099224|   -4.115427|   -4.148210|   -5.655247|
|         532|   -6.100961|   -4.118268|   -4.148455|   -5.656990|
|         533|   -6.104074|   -4.123695|   -4.148295|   -5.658743|
|         534|   -6.107535|   -4.130607|   -4.148344|   -5.660503|
|         535|   -6.110637|   -4.138400|   -4.149202|   -5.662293|
|         536|   -6.113096|   -4.146386|   -4.150800|   -5.664114|
|         537|   -6.114989|   -4.153573|   -4.152840|   -5.665950|
|         538|   -6.116510|   -4.159242|   -4.155236|   -5.667785|
|         539|   -6.117778|   -4.163499|   -4.157738|   -5.669608|
|         540|   -6.118872|   -4.166923|   -4.159877|   -5.671414|
|         541|   -6.119831|   -4.170023|   -4.161452|   -5.673190|
|         542|   -6.120649|   -4.173074|   -4.162423|   -5.674923|
|         543|   -6.121337|   -4.176159|   -4.162842|   -5.676595|
|         544|   -6.121899|   -4.179319|   -4.162816|   -5.678194|
|         545|   -6.122345|   -4.182556|   -4.162454|   -5.679710|
|         546|   -6.122689|   -4.185826|   -4.161874|   -5.681140|
|         547|   -6.122962|   -4.189103|   -4.161175|   -5.682487|
|         548|   -6.123188|   -4.192377|   -4.160410|   -5.683759|
|         549|   -6.123384|   -4.195631|   -4.159594|   -5.684970|
|         550|   -6.123579|   -4.198807|   -4.158725|   -5.686135|
|         551|   -6.123803|   -4.201831|   -4.157782|   -5.687273|
|         552|   -6.124078|   -4.204632|   -4.156776|   -5.688404|
|         553|   -6.124424|   -4.207158|   -4.155728|   -5.689547|
|         554|   -6.124841|   -4.209367|   -4.154645|   -5.690718|
|         555|   -6.125342|   -4.211229|   -4.153550|   -5.691932|
|         556|   -6.125930|   -4.212729|   -4.152493|   -5.693199|
|         557|   -6.126586|   -4.213882|   -4.151468|   -5.694524|
|         558|   -6.127309|   -4.214707|   -4.150486|   -5.695907|
|         559|   -6.128107|   -4.215201|   -4.149548|   -5.697345|
|         560|   -6.128993|   -4.215353|   -4.148645|   -5.698830|
|         561|   -6.129973|   -4.215150|   -4.147795|   -5.700353|
|         562|   -6.131058|   -4.214600|   -4.147049|   -5.701907|
|         563|   -6.132237|   -4.213736|   -4.146428|   -5.703484|
|         564|   -6.133502|   -4.212628|   -4.145942|   -5.705080|
|         565|   -6.134853|   -4.211342|   -4.145601|   -5.706694|
|         566|   -6.136301|   -4.209904|   -4.145397|   -5.708330|
|         567|   -6.137849|   -4.208285|   -4.145319|   -5.709993|
|         568|   -6.139500|   -4.206440|   -4.145347|   -5.711689|
|         569|   -6.141255|   -4.204345|   -4.145466|   -5.713429|
|         570|   -6.143108|   -4.201997|   -4.145658|   -5.715219|
|         571|   -6.145069|   -4.199409|   -4.145948|   -5.717071|
|         572|   -6.147143|   -4.196612|   -4.146340|   -5.718991|
|         573|   -6.149302|   -4.193632|   -4.146814|   -5.720988|
|         574|   -6.151556|   -4.190496|   -4.147396|   -5.723066|
|         575|   -6.153908|   -4.187221|   -4.148096|   -5.725229|
|         576|   -6.156371|   -4.183796|   -4.148906|   -5.727482|
|         577|   -6.158955|   -4.180213|   -4.149805|   -5.729826|
|         578|   -6.161668|   -4.176482|   -4.150785|   -5.732262|
|         579|   -6.164516|   -4.172637|   -4.151869|   -5.734790|
|         580|   -6.167514|   -4.168728|   -4.153109|   -5.737410|
|         581|   -6.170653|   -4.164788|   -4.154521|   -5.740121|
|         582|   -6.173909|   -4.160859|   -4.156054|   -5.742919|
|         583|   -6.177290|   -4.156950|   -4.157702|   -5.745803|
|         584|   -6.180802|   -4.153060|   -4.159445|   -5.748769|
|         585|   -6.184449|   -4.149181|   -4.161275|   -5.751814|
|         586|   -6.188234|   -4.145318|   -4.163133|   -5.754936|
|         587|   -6.192134|   -4.141477|   -4.165044|   -5.758130|
|         588|   -6.196149|   -4.137679|   -4.166996|   -5.761393|
|         589|   -6.200261|   -4.133952|   -4.168974|   -5.764724|
|         590|   -6.204480|   -4.130316|   -4.171013|   -5.768119|
|         591|   -6.208767|   -4.126777|   -4.173071|   -5.771576|
|         592|   -6.213098|   -4.123347|   -4.175155|   -5.775092|
|         593|   -6.217479|   -4.120036|   -4.177334|   -5.778664|
|         594|   -6.221917|   -4.116837|   -4.179635|   -5.782290|
|         595|   -6.226414|   -4.113732|   -4.182070|   -5.785967|
|         596|   -6.231010|   -4.110701|   -4.184158|   -5.789689|
|         597|   -6.235614|   -4.107733|   -4.186041|   -5.793449|
|         598|   -6.240309|   -4.104839|   -4.188042|   -5.797245|
|         599|   -6.245174|   -4.102053|   -4.190282|   -5.801075|
|         600|   -6.250235|   -4.099379|   -4.192827|   -5.804938|
|         601|   -6.255518|   -4.096793|   -4.195709|   -5.808832|
|         602|   -6.261002|   -4.094265|   -4.198859|   -5.812754|
|         603|   -6.266705|   -4.091766|   -4.202269|   -5.816703|
|         604|   -6.272655|   -4.089280|   -4.205934|   -5.820680|
|         605|   -6.278879|   -4.086817|   -4.209851|   -5.824682|
|         606|   -6.285418|   -4.084389|   -4.214068|   -5.828712|
|         607|   -6.292325|   -4.082024|   -4.218617|   -5.832769|
|         608|   -6.299621|   -4.079717|   -4.223472|   -5.836853|
|         609|   -6.307334|   -4.077467|   -4.228596|   -5.840967|
|         610|   -6.315529|   -4.075279|   -4.234027|   -5.845113|
|         611|   -6.324207|   -4.073166|   -4.239768|   -5.849290|
|         612|   -6.333356|   -4.071149|   -4.245835|   -5.853498|
|         613|   -6.343000|   -4.069235|   -4.252292|   -5.857736|
|         614|   -6.353151|   -4.067420|   -4.259172|   -5.862006|
|         615|   -6.363833|   -4.065701|   -4.266446|   -5.866308|
|         616|   -6.375045|   -4.064075|   -4.274073|   -5.870645|
|         617|   -6.386780|   -4.062554|   -4.282017|   -5.875020|
|         618|   -6.399013|   -4.061153|   -4.290236|   -5.879435|
|         619|   -6.411704|   -4.059882|   -4.298684|   -5.883892|
|         620|   -6.424834|   -4.058751|   -4.307351|   -5.888390|
|         621|   -6.438352|   -4.057761|   -4.316229|   -5.892934|
|         622|   -6.452176|   -4.056923|   -4.325186|   -5.897521|
|         623|   -6.466146|   -4.056237|   -4.334105|   -5.902155|
|         624|   -6.480151|   -4.055698|   -4.342895|   -5.906836|
|         625|   -6.494096|   -4.055299|   -4.351445|   -5.911566|
|         626|   -6.507797|   -4.055019|   -4.359668|   -5.916345|
|         627|   -6.521167|   -4.054838|   -4.367376|   -5.921172|
|         628|   -6.533955|   -4.054749|   -4.374360|   -5.926049|
|         629|   -6.546031|   -4.054761|   -4.380479|   -5.930974|
|         630|   -6.557235|   -4.054899|   -4.385718|   -5.935948|
|         631|   -6.567328|   -4.055194|   -4.390159|   -5.940971|
|         632|   -6.576157|   -4.055660|   -4.393922|   -5.946036|
|         633|   -6.583544|   -4.056283|   -4.397137|   -5.951144|
|         634|   -6.589431|   -4.057035|   -4.399837|   -5.956288|
|         635|   -6.593728|   -4.057880|   -4.401989|   -5.961467|
|         636|   -6.596416|   -4.058794|   -4.403548|   -5.966678|
|         637|   -6.597591|   -4.059770|   -4.404471|   -5.971916|
|         638|   -6.597306|   -4.060815|   -4.404793|   -5.977178|
|         639|   -6.595767|   -4.061940|   -4.404594|   -5.982455|
|         640|   -6.593105|   -4.063151|   -4.403986|   -5.987741|
|         641|   -6.589532|   -4.064445|   -4.403075|   -5.993028|
|         642|   -6.585205|   -4.065813|   -4.401936|   -5.998312|
|         643|   -6.580284|   -4.067233|   -4.400605|   -6.003592|
|         644|   -6.574904|   -4.068683|   -4.399095|   -6.008866|
|         645|   -6.569237|   -4.070145|   -4.397431|   -6.014136|
|         646|   -6.563384|   -4.071610|   -4.395611|   -6.019404|
|         647|   -6.557438|   -4.073063|   -4.393571|   -6.024680|
|         648|   -6.551522|   -4.074497|   -4.391212|   -6.029968|
|         649|   -6.545665|   -4.075924|   -4.388517|   -6.035274|
|         650|   -6.539984|   -4.077373|   -4.385612|   -6.040597|
|         651|   -6.534379|   -4.078873|   -4.382691|   -6.045948|
|         652|   -6.528920|   -4.080457|   -4.379879|   -6.051323|
|         653|   -6.523503|   -4.082134|   -4.377291|   -6.056721|
|         654|   -6.518140|   -4.083906|   -4.374951|   -6.062136|
|         655|   -6.512776|   -4.085760|   -4.372844|   -6.067564|
|         656|   -6.507386|   -4.087686|   -4.370940|   -6.072997|
|         657|   -6.501953|   -4.089676|   -4.369158|   -6.078427|
|         658|   -6.496432|   -4.091731|   -4.367420|   -6.083839|
|         659|   -6.490809|   -4.093852|   -4.365681|   -6.089222|
|         660|   -6.485074|   -4.096065|   -4.363930|   -6.094569|
|         661|   -6.479215|   -4.098372|   -4.362200|   -6.099870|
|         662|   -6.473195|   -4.100764|   -4.360517|   -6.105117|
|         663|   -6.466962|   -4.103236|   -4.358863|   -6.110308|
|         664|   -6.460476|   -4.105769|   -4.357223|   -6.115449|
|         665|   -6.453721|   -4.108360|   -4.355561|   -6.120551|
|         666|   -6.446694|   -4.110999|   -4.353847|   -6.125624|
|         667|   -6.439402|   -4.113687|   -4.352033|   -6.130684|
|         668|   -6.431873|   -4.116447|   -4.350133|   -6.135746|
|         669|   -6.424153|   -4.119313|   -4.348174|   -6.140824|
|         670|   -6.416251|   -4.122314|   -4.346204|   -6.145926|
|         671|   -6.408197|   -4.125479|   -4.344241|   -6.151061|
|         672|   -6.400053|   -4.128823|   -4.342375|   -6.156226|
|         673|   -6.391892|   -4.132360|   -4.340701|   -6.161406|
|         674|   -6.383692|   -4.136099|   -4.339226|   -6.166589|
|         675|   -6.375445|   -4.140034|   -4.337996|   -6.171757|
|         676|   -6.367167|   -4.144141|   -4.337047|   -6.176887|
|         677|   -6.358869|   -4.148391|   -4.336390|   -6.181951|
|         678|   -6.350564|   -4.152736|   -4.336017|   -6.186919|
|         679|   -6.342267|   -4.157132|   -4.335852|   -6.191751|
|         680|   -6.333984|   -4.161546|   -4.335848|   -6.196407|
|         681|   -6.325753|   -4.165959|   -4.335973|   -6.200846|
|         682|   -6.317611|   -4.170362|   -4.336204|   -6.205014|
|         683|   -6.309570|   -4.174739|   -4.336519|   -6.208868|
|         684|   -6.301648|   -4.179076|   -4.336895|   -6.212369|
|         685|   -6.293862|   -4.183350|   -4.337353|   -6.215472|
|         686|   -6.286214|   -4.187540|   -4.337897|   -6.218128|
|         687|   -6.278697|   -4.191636|   -4.338545|   -6.220295|
|         688|   -6.271316|   -4.195637|   -4.339309|   -6.221931|
|         689|   -6.264070|   -4.199549|   -4.340239|   -6.223009|
|         690|   -6.256983|   -4.203390|   -4.341378|   -6.223489|
|         691|   -6.250058|   -4.207174|   -4.342752|   -6.223349|
|         692|   -6.243306|   -4.210908|   -4.344353|   -6.222542|
|         693|   -6.236744|   -4.214603|   -4.345976|   -6.221049|
|         694|   -6.230350|   -4.218266|   -4.347527|   -6.218853|
|         695|   -6.224079|   -4.221886|   -4.349194|   -6.215919|
|         696|   -6.217951|   -4.225406|   -4.351025|   -6.212200|
|         697|   -6.211949|   -4.228746|   -4.352997|   -6.207653|
|         698|   -6.206048|   -4.231829|   -4.355044|   -6.202222|
|         699|   -6.200242|   -4.234609|   -4.356949|   -6.195892|
|         700|   -6.194458|   -4.237080|   -4.358809|   -6.188652|
|         701|   -6.188705|   -4.239267|   -4.360751|   -6.180444|
|         702|   -6.182980|   -4.241197|   -4.362898|   -6.171290|
|         703|   -6.177276|   -4.242901|   -4.364881|   -6.161242|
|         704|   -6.171536|   -4.244443|   -4.366595|   -6.150388|
|         705|   -6.165649|   -4.245932|   -4.368413|   -6.138842|
|         706|   -6.159666|   -4.247491|   -4.370442|   -6.126709|
|         707|   -6.153561|   -4.249321|   -4.372788|   -6.114297|
|         708|   -6.147447|   -4.251582|   -4.373130|   -6.102270|
|         709|   -6.140945|   -4.254478|   -4.370831|   -6.091112|
|         710|   -6.134057|   -4.258127|   -4.367889|   -6.080990|
|         711|   -6.127400|   -4.262471|   -4.365078|   -6.071973|
|         712|   -6.121053|   -4.267432|   -4.362724|   -6.064084|
|         713|   -6.115082|   -4.272867|   -4.360954|   -6.057282|
|         714|   -6.109491|   -4.278587|   -4.358295|   -6.051621|
|         715|   -6.104181|   -4.284467|   -4.353509|   -6.047040|
|         716|   -6.099016|   -4.290438|   -4.348425|   -6.043355|
|         717|   -6.094401|   -4.296415|   -4.343736|   -6.040035|
|         718|   -6.089930|   -4.302261|   -4.339617|   -6.037013|
|         719|   -6.085989|   -4.308040|   -4.335922|   -6.034160|
|         720|   -6.082304|   -4.313691|   -4.332672|   -6.031153|
|         721|   -6.078959|   -4.319275|   -4.329667|   -6.028147|
|         722|   -6.075855|   -4.324798|   -4.326908|   -6.024915|
|         723|   -6.073066|   -4.330345|   -4.324298|   -6.021590|
|         724|   -6.070320|   -4.335899|   -4.321816|   -6.018087|
|         725|   -6.067907|   -4.341552|   -4.319346|   -6.014415|
|         726|   -6.065447|   -4.347282|   -4.316898|   -6.010747|
|         727|   -6.063150|   -4.353090|   -4.314334|   -6.007143|
|         728|   -6.061047|   -4.358947|   -4.311850|   -6.003601|
|         729|   -6.059091|   -4.364910|   -4.309350|   -6.000308|
|         730|   -6.057193|   -4.370916|   -4.306854|   -5.997186|
|         731|   -6.055540|   -4.376994|   -4.304362|   -5.994193|
|         732|   -6.053993|   -4.383149|   -4.301958|   -5.991436|
|         733|   -6.052553|   -4.389266|   -4.299596|   -5.989039|
|         734|   -6.051135|   -4.395255|   -4.297198|   -5.987073|
|         735|   -6.049903|   -4.401058|   -4.294921|   -5.985458|
|         736|   -6.048789|   -4.406588|   -4.292679|   -5.984064|
|         737|   -6.047765|   -4.411813|   -4.290501|   -5.982922|
|         738|   -6.046813|   -4.416661|   -4.288350|   -5.982048|
|         739|   -6.045948|   -4.421067|   -4.286254|   -5.981752|
|         740|   -6.045165|   -4.424993|   -4.284288|   -5.981601|
|         741|   -6.044567|   -4.428369|   -4.282307|   -5.981582|
|         742|   -6.043952|   -4.431131|   -4.280428|   -5.981662|
|         743|   -6.043564|   -4.433170|   -4.278633|   -5.981628|
|         744|   -6.043266|   -4.434555|   -4.276980|   -5.981677|
|         745|   -6.043112|   -4.435358|   -4.275531|   -5.981570|
|         746|   -6.043034|   -4.435696|   -4.274290|   -5.981592|
|         747|   -6.043101|   -4.435627|   -4.273208|   -5.981390|
|         748|   -6.043308|   -4.435158|   -4.272287|   -5.981059|
|         749|   -6.043543|   -4.434264|   -4.271542|   -5.980743|
|         750|   -6.043847|   -4.432877|   -4.270914|   -5.980460|
|         751|   -6.044314|   -4.431092|   -4.270408|   -5.979972|
|         752|   -6.044943|   -4.429020|   -4.270043|   -5.979147|
|         753|   -6.045723|   -4.426747|   -4.269775|   -5.977824|
|         754|   -6.046623|   -4.424345|   -4.269688|   -5.975992|
|         755|   -6.047634|   -4.421842|   -4.269648|   -5.973475|
|         756|   -6.048731|   -4.419305|   -4.269720|   -5.970312|
|         757|   -6.049882|   -4.416722|   -4.269967|   -5.966513|
|         758|   -6.051099|   -4.414028|   -4.270432|   -5.962232|
|         759|   -6.052378|   -4.411346|   -4.271125|   -5.957570|
|         760|   -6.053712|   -4.408850|   -4.272009|   -5.952527|
|         761|   -6.055084|   -4.406645|   -4.273037|   -5.947111|
|         762|   -6.056492|   -4.404759|   -4.274204|   -5.941489|
|         763|   -6.057924|   -4.403093|   -4.275532|   -5.935945|
|         764|   -6.059316|   -4.401655|   -4.277038|   -5.930771|
|         765|   -6.060621|   -4.400497|   -4.278692|   -5.926126|
|         766|   -6.061848|   -4.399667|   -4.280456|   -5.921976|
|         767|   -6.063058|   -4.399191|   -4.282291|   -5.918209|
|         768|   -6.064287|   -4.398996|   -4.284205|   -5.914753|
|         769|   -6.065509|   -4.398987|   -4.286210|   -5.911570|
|         770|   -6.066666|   -4.399130|   -4.288316|   -5.908609|
|         771|   -6.067746|   -4.399409|   -4.290497|   -5.905793|
|         772|   -6.068793|   -4.399775|   -4.292717|   -5.903051|
|         773|   -6.069815|   -4.400128|   -4.294986|   -5.900352|
|         774|   -6.070779|   -4.400397|   -4.297328|   -5.897820|
|         775|   -6.071693|   -4.400520|   -4.299784|   -5.895439|
|         776|   -6.072575|   -4.400424|   -4.302387|   -5.893152|
|         777|   -6.073430|   -4.400051|   -4.305131|   -5.890985|
|         778|   -6.074232|   -4.399378|   -4.307983|   -5.888947|
|         779|   -6.075029|   -4.398410|   -4.310897|   -5.887010|
|         780|   -6.075833|   -4.397202|   -4.313831|   -5.885228|
|         781|   -6.076545|   -4.395774|   -4.316750|   -5.883890|
|         782|   -6.077358|   -4.394146|   -4.319625|   -5.882745|
|         783|   -6.078216|   -4.392391|   -4.322447|   -5.882101|
|         784|   -6.079068|   -4.390460|   -4.325217|   -5.881909|
|         785|   -6.080135|   -4.388274|   -4.327914|   -5.881993|
|         786|   -6.081237|   -4.385877|   -4.330531|   -5.882210|
|         787|   -6.082375|   -4.383170|   -4.333054|   -5.882560|
|         788|   -6.083566|   -4.380117|   -4.335484|   -5.883156|
|         789|   -6.084894|   -4.376658|   -4.337852|   -5.883982|
|         790|   -6.086343|   -4.372862|   -4.340201|   -5.885124|
|         791|   -6.087751|   -4.368725|   -4.342561|   -5.887087|
|         792|   -6.089393|   -4.364230|   -4.344983|   -5.889603|
|         793|   -6.091281|   -4.359519|   -4.347513|   -5.892461|
|         794|   -6.093372|   -4.354549|   -4.350163|   -5.895830|
|         795|   -6.095476|   -4.349226|   -4.352954|   -5.900092|
|         796|   -6.097954|   -4.343479|   -4.355840|   -5.904837|
|         797|   -6.100775|   -4.337503|   -4.358844|   -5.910119|
|         798|   -6.103910|   -4.331238|   -4.362049|   -5.915850|
|         799|   -6.107286|   -4.324745|   -4.365399|   -5.922077|
|         800|   -6.111096|   -4.318150|   -4.368904|   -5.928578|
|         801|   -6.115121|   -4.311458|   -4.372627|   -5.935590|
|         802|   -6.119337|   -4.304716|   -4.376600|   -5.942707|
|         803|   -6.123842|   -4.298010|   -4.380725|   -5.949697|
|         804|   -6.128550|   -4.291393|   -4.384962|   -5.956260|
|         805|   -6.133329|   -4.284958|   -4.389329|   -5.962232|
|         806|   -6.138129|   -4.278797|   -4.393801|   -5.967672|
|         807|   -6.143012|   -4.272966|   -4.398345|   -5.972307|
|         808|   -6.147905|   -4.267478|   -4.402854|   -5.976150|
|         809|   -6.152792|   -4.262316|   -4.407187|   -5.979174|
|         810|   -6.157645|   -4.257478|   -4.411194|   -5.981487|
|         811|   -6.162442|   -4.252982|   -4.414780|   -5.983175|
|         812|   -6.167157|   -4.248840|   -4.417939|   -5.984382|
|         813|   -6.171744|   -4.245009|   -4.420638|   -5.985200|
|         814|   -6.176193|   -4.241518|   -4.423003|   -5.985953|
|         815|   -6.180427|   -4.238462|   -4.425199|   -5.986956|
|         816|   -6.184459|   -4.235840|   -4.427333|   -5.988612|
|         817|   -6.188381|   -4.233680|   -4.429709|   -5.991231|
|         818|   -6.192494|   -4.232004|   -4.432383|   -5.994935|
|         819|   -6.197118|   -4.230800|   -4.435450|   -5.999749|
|         820|   -6.202232|   -4.230032|   -4.439077|   -6.005981|
|         821|   -6.207622|   -4.229653|   -4.443073|   -6.013772|
|         822|   -6.213398|   -4.229592|   -4.447318|   -6.022815|
|         823|   -6.219589|   -4.229701|   -4.451755|   -6.032714|
|         824|   -6.226055|   -4.229873|   -4.456199|   -6.043235|
|         825|   -6.232673|   -4.230007|   -4.460478|   -6.054118|
|         826|   -6.239280|   -4.230067|   -4.464433|   -6.065282|
|         827|   -6.245428|   -4.230038|   -4.468016|   -6.076322|
|         828|   -6.251239|   -4.229902|   -4.471240|   -6.086914|
|         829|   -6.256585|   -4.229698|   -4.474202|   -6.096616|
|         830|   -6.261485|   -4.229416|   -4.476998|   -6.105454|
|         831|   -6.265925|   -4.229081|   -4.479577|   -6.112356|
|         832|   -6.269936|   -4.228748|   -4.481843|   -6.116976|
|         833|   -6.273546|   -4.228498|   -4.483842|   -6.120633|
|         834|   -6.276633|   -4.228355|   -4.485590|   -6.122385|
|         835|   -6.280092|   -4.228297|   -4.487096|   -6.121681|
|         836|   -6.283036|   -4.228298|   -4.488248|   -6.118423|
|         837|   -6.286450|   -4.228276|   -4.488953|   -6.113309|
|         838|   -6.288829|   -4.228302|   -4.489350|   -6.106329|
|         839|   -6.291070|   -4.228343|   -4.489445|   -6.097931|
|         840|   -6.291951|   -4.228412|   -4.489405|   -6.088508|
|         841|   -6.292448|   -4.228528|   -4.489214|   -6.078346|
|         842|   -6.292256|   -4.228640|   -4.488967|   -6.067163|
|         843|   -6.292306|   -4.228709|   -4.488572|   -6.056333|
|         844|   -6.290758|   -4.228697|   -4.488043|   -6.045772|
|         845|   -6.289639|   -4.228522|   -4.487370|   -6.034800|
|         846|   -6.288346|   -4.228141|   -4.486406|   -6.022818|
|         847|   -6.287019|   -4.227513|   -4.485412|   -6.011145|
|         848|   -6.283018|   -4.226737|   -4.484466|   -6.001306|
|         849|   -6.278621|   -4.225875|   -4.483647|   -5.991621|
|         850|   -6.274071|   -4.225137|   -4.483278|   -5.982229|
|         851|   -6.268643|   -4.224567|   -4.483311|   -5.975144|
|         852|   -6.264598|   -4.224132|   -4.483019|   -5.970442|
|         853|   -6.264313|   -4.224124|   -4.483252|   -5.967058|
|         854|   -6.264496|   -4.224348|   -4.485800|   -5.965384|
|         855|   -6.268327|   -4.224343|   -4.490303|   -5.964367|
|         856|   -6.277508|   -4.224247|   -4.496334|   -5.964374|
|         857|   -6.288947|   -4.224760|   -4.503392|   -5.965534|
|         858|   -6.302079|   -4.225882|   -4.510510|   -5.967578|
|         859|   -6.315384|   -4.227300|   -4.517598|   -5.969587|
|         860|   -6.328921|   -4.228597|   -4.524700|   -5.970543|
|         861|   -6.341401|   -4.229755|   -4.530957|   -5.969982|
|         862|   -6.351593|   -4.230892|   -4.535490|   -5.968186|
|         863|   -6.359182|   -4.232019|   -4.538582|   -5.965941|
|         864|   -6.364375|   -4.233000|   -4.540570|   -5.964136|
|         865|   -6.367940|   -4.233706|   -4.541269|   -5.963483|
|         866|   -6.369914|   -4.234137|   -4.540508|   -5.963589|
|         867|   -6.370390|   -4.234441|   -4.538108|   -5.963601|
|         868|   -6.369647|   -4.234720|   -4.534771|   -5.962635|
|         869|   -6.367903|   -4.235215|   -4.531818|   -5.960527|
|         870|   -6.365274|   -4.235984|   -4.529165|   -5.957793|
|         871|   -6.362526|   -4.236854|   -4.525900|   -5.955224|
|         872|   -6.360966|   -4.237583|   -4.522943|   -5.953456|
|         873|   -6.362187|   -4.238133|   -4.522046|   -5.952744|
|         874|   -6.366956|   -4.238600|   -4.524197|   -5.953050|
|         875|   -6.375256|   -4.239084|   -4.529394|   -5.954117|
|         876|   -6.386808|   -4.239650|   -4.536626|   -5.955614|
|         877|   -6.402041|   -4.240335|   -4.544528|   -5.957198|
|         878|   -6.421216|   -4.241234|   -4.553607|   -5.958465|
|         879|   -6.440134|   -4.242392|   -4.561947|   -5.959260|
|         880|   -6.456750|   -4.243750|   -4.568676|   -5.959548|
|         881|   -6.471039|   -4.245195|   -4.573950|   -5.959413|
|         882|   -6.483181|   -4.246653|   -4.578137|   -5.958944|
|         883|   -6.493327|   -4.248059|   -4.581438|   -5.958260|
|         884|   -6.501391|   -4.249383|   -4.583841|   -5.957460|
|         885|   -6.507556|   -4.250585|   -4.585320|   -5.956585|
|         886|   -6.511861|   -4.251646|   -4.585857|   -5.955696|
|         887|   -6.514608|   -4.252679|   -4.585448|   -5.954802|
|         888|   -6.515678|   -4.253762|   -4.584005|   -5.953924|
|         889|   -6.515333|   -4.254935|   -4.581404|   -5.953073|
|         890|   -6.513755|   -4.256225|   -4.577583|   -5.952251|
|         891|   -6.511060|   -4.257571|   -4.572360|   -5.951472|
|         892|   -6.507332|   -4.259106|   -4.566003|   -5.950729|
|         893|   -6.502485|   -4.260758|   -4.559407|   -5.950033|
|         894|   -6.496514|   -4.262273|   -4.552726|   -5.949371|
|         895|   -6.489441|   -4.263478|   -4.545822|   -5.948747|
|         896|   -6.481250|   -4.264270|   -4.538558|   -5.948144|
|         897|   -6.472544|   -4.264526|   -4.530312|   -5.947591|
|         898|   -6.463126|   -4.264258|   -4.520989|   -5.947057|
|         899|   -6.453281|   -4.263457|   -4.510637|   -5.946535|
|         900|   -6.443131|   -4.262186|   -4.499325|   -5.946018|
|         901|   -6.433255|   -4.260556|   -4.487168|   -5.945501|
|         902|   -6.423933|   -4.258743|   -4.474399|   -5.944973|
|         903|   -6.415164|   -4.256910|   -4.461315|   -5.944424|
|         904|   -6.406945|   -4.255184|   -4.448222|   -5.943819|
|         905|   -6.398939|   -4.253573|   -4.435575|   -5.943126|
|         906|   -6.390708|   -4.251993|   -4.423626|   -5.942321|
|         907|   -6.381620|   -4.250301|   -4.412748|   -5.941331|
|         908|   -6.370703|   -4.248290|   -4.403146|   -5.940084|
|         909|   -6.358116|   -4.245701|   -4.393711|   -5.938847|
|         910|   -6.343161|   -4.242741|   -4.385185|   -5.937470|
|         911|   -6.325577|   -4.239343|   -4.378618|   -5.935954|
|         912|   -6.306081|   -4.235960|   -4.374296|   -5.934336|
|         913|   -6.285821|   -4.233295|   -4.372363|   -5.932632|
|         914|   -6.266222|   -4.232072|   -4.372975|   -5.930970|
|         915|   -6.248480|   -4.232482|   -4.376294|   -5.929374|
|         916|   -6.233645|   -4.234487|   -4.381904|   -5.927848|
|         917|   -6.222535|   -4.237804|   -4.388844|   -5.926406|
|         918|   -6.217015|   -4.242325|   -4.395815|   -5.925123|
|         919|   -6.218274|   -4.248924|   -4.401281|   -5.924010|
|         920|   -6.226167|   -4.258987|   -4.403606|   -5.923098|
|         921|   -6.235672|   -4.272747|   -4.403340|   -5.922561|
|         922|   -6.241082|   -4.287102|   -4.406153|   -5.922589|
|         923|   -6.242246|   -4.300316|   -4.413508|   -5.923045|
|         924|   -6.240977|   -4.311120|   -4.423041|   -5.923621|
|         925|   -6.238633|   -4.319036|   -4.433020|   -5.924153|
|         926|   -6.235895|   -4.324832|   -4.442854|   -5.924634|
|         927|   -6.233129|   -4.329643|   -4.451181|   -5.925106|
|         928|   -6.230467|   -4.333846|   -4.457076|   -5.925573|
|         929|   -6.227978|   -4.337860|   -4.460996|   -5.926054|
|         930|   -6.225540|   -4.341908|   -4.463470|   -5.926581|
|         931|   -6.223179|   -4.346034|   -4.464856|   -5.927179|
|         932|   -6.220922|   -4.350285|   -4.465334|   -5.927872|
|         933|   -6.218726|   -4.354676|   -4.465010|   -5.928679|
|         934|   -6.216556|   -4.359184|   -4.463958|   -5.929587|
|         935|   -6.214418|   -4.363733|   -4.462259|   -5.930558|
|         936|   -6.212336|   -4.368242|   -4.460017|   -5.931541|
|         937|   -6.210351|   -4.372640|   -4.457342|   -5.932475|
|         938|   -6.208501|   -4.376892|   -4.454335|   -5.933310|
|         939|   -6.206813|   -4.380974|   -4.451082|   -5.934011|
|         940|   -6.205292|   -4.384876|   -4.447632|   -5.934562|
|         941|   -6.203920|   -4.388595|   -4.444022|   -5.934969|
|         942|   -6.202662|   -4.392140|   -4.440267|   -5.935254|
|         943|   -6.201469|   -4.395508|   -4.436372|   -5.935452|
|         944|   -6.200284|   -4.398699|   -4.432326|   -5.935604|
|         945|   -6.199054|   -4.401698|   -4.428109|   -5.935752|
|         946|   -6.197739|   -4.404498|   -4.423702|   -5.935930|
|         947|   -6.196312|   -4.407100|   -4.419080|   -5.936164|
|         948|   -6.194769|   -4.409518|   -4.414222|   -5.936463|
|         949|   -6.193119|   -4.411777|   -4.409139|   -5.936824|
|         950|   -6.191384|   -4.413909|   -4.403844|   -5.937238|
|         951|   -6.189601|   -4.415943|   -4.398364|   -5.937684|
|         952|   -6.187802|   -4.417903|   -4.392727|   -5.938137|
|         953|   -6.186025|   -4.419811|   -4.386967|   -5.938574|
|         954|   -6.184298|   -4.421685|   -4.381114|   -5.938977|
|         955|   -6.182646|   -4.423536|   -4.375189|   -5.939332|
|         956|   -6.181085|   -4.425364|   -4.369210|   -5.939632|
|         957|   -6.179625|   -4.427151|   -4.363181|   -5.939878|
|         958|   -6.178263|   -4.428868|   -4.357099|   -5.940076|
|         959|   -6.176999|   -4.430488|   -4.350958|   -5.940237|
|         960|   -6.175829|   -4.431965|   -4.344758|   -5.940373|
|         961|   -6.174744|   -4.433259|   -4.338514|   -5.940499|
|         962|   -6.173737|   -4.434323|   -4.332243|   -5.940624|
|         963|   -6.172811|   -4.435114|   -4.325975|   -5.940755|
|         964|   -6.171975|   -4.435605|   -4.319758|   -5.940893|
|         965|   -6.171229|   -4.435792|   -4.313650|   -5.941035|
|         966|   -6.170571|   -4.435683|   -4.307708|   -5.941175|
|         967|   -6.169991|   -4.435306|   -4.301984|   -5.941306|
|         968|   -6.169473|   -4.434706|   -4.296516|   -5.941421|
|         969|   -6.168995|   -4.433933|   -4.291325|   -5.941514|
|         970|   -6.168530|   -4.433045|   -4.286411|   -5.941583|
|         971|   -6.168050|   -4.432091|   -4.281761|   -5.941629|
|         972|   -6.167532|   -4.431110|   -4.277347|   -5.941654|
|         973|   -6.166961|   -4.430128|   -4.273135|   -5.941665|
|         974|   -6.166326|   -4.429152|   -4.269083|   -5.941668|
|         975|   -6.165627|   -4.428177|   -4.265156|   -5.941672|
|         976|   -6.164870|   -4.427181|   -4.261325|   -5.941684|
|         977|   -6.164073|   -4.426124|   -4.257578|   -5.941713|
[...]
|        1440|   -6.240863|   -4.395527|   -4.331716|   -6.054727|
|        1441|   -6.238564|   -4.397659|   -4.329335|   -6.055896|
|        1442|   -6.236339|   -4.399619|   -4.327061|   -6.057256|
|        1443|   -6.234198|   -4.401391|   -4.324901|   -6.058855|
|        1444|   -6.232143|   -4.402973|   -4.322858|   -6.060537|
|        1445|   -6.230080|   -4.404323|   -4.320954|   -6.062783|
|        1446|   -6.227924|   -4.405480|   -4.319195|   -6.067544|
|        1447|   -6.226473|   -4.406339|   -4.317561|   -6.073661|
|        1448|   -6.224834|   -4.406847|   -4.316024|   -6.081096|
|        1449|   -6.223234|   -4.407071|   -4.314545|   -6.089328|
|        1450|   -6.221813|   -4.407355|   -4.313102|   -6.097908|
|        1451|   -6.220579|   -4.407934|   -4.311681|   -6.106625|
|        1452|   -6.219488|   -4.408790|   -4.310269|   -6.115335|
|        1453|   -6.218496|   -4.409820|   -4.308853|   -6.123982|
|        1454|   -6.217594|   -4.410971|   -4.307425|   -6.132483|
|        1455|   -6.216765|   -4.412224|   -4.305980|   -6.140736|
|        1456|   -6.215997|   -4.413532|   -4.304516|   -6.148605|
|        1457|   -6.215265|   -4.414925|   -4.303030|   -6.156179|
|        1458|   -6.214584|   -4.416364|   -4.301515|   -6.163469|
|        1459|   -6.213945|   -4.417814|   -4.299972|   -6.170487|
|        1460|   -6.213360|   -4.419223|   -4.298408|   -6.177141|
|        1461|   -6.212833|   -4.420595|   -4.296830|   -6.183512|
|        1462|   -6.212382|   -4.421886|   -4.295254|   -6.189506|
|        1463|   -6.212022|   -4.423069|   -4.293693|   -6.195186|
|        1464|   -6.211772|   -4.424119|   -4.292163|   -6.200474|
|        1465|   -6.211641|   -4.425010|   -4.290686|   -6.205420|
|        1466|   -6.211651|   -4.425724|   -4.289288|   -6.210048|
|        1467|   -6.211816|   -4.426221|   -4.287988|   -6.214353|
|        1468|   -6.212142|   -4.426472|   -4.286806|   -6.218377|
|        1469|   -6.212647|   -4.426466|   -4.285766|   -6.222147|
|        1470|   -6.213328|   -4.426175|   -4.284887|   -6.225662|
|        1471|   -6.214182|   -4.425604|   -4.284176|   -6.228990|
|        1472|   -6.215202|   -4.424717|   -4.283639|   -6.232094|
|        1473|   -6.216378|   -4.423492|   -4.283273|   -6.235047|
|        1474|   -6.217698|   -4.421922|   -4.283068|   -6.237788|
|        1475|   -6.219138|   -4.420042|   -4.283012|   -6.240444|
|        1476|   -6.220699|   -4.417844|   -4.283084|   -6.242916|
|        1477|   -6.222350|   -4.415350|   -4.283265|   -6.245269|
|        1478|   -6.224086|   -4.412593|   -4.283530|   -6.247496|
|        1479|   -6.225896|   -4.409606|   -4.283855|   -6.249617|
|        1480|   -6.227773|   -4.406408|   -4.284223|   -6.251626|
|        1481|   -6.229711|   -4.403029|   -4.284620|   -6.253537|
|        1482|   -6.231706|   -4.399493|   -4.285037|   -6.255350|
|        1483|   -6.233766|   -4.395816|   -4.285470|   -6.257050|
|        1484|   -6.235887|   -4.392017|   -4.285924|   -6.258643|
|        1485|   -6.238077|   -4.388114|   -4.286400|   -6.260121|
|        1486|   -6.240335|   -4.384124|   -4.286906|   -6.261485|
|        1487|   -6.242666|   -4.380059|   -4.287446|   -6.262736|
|        1488|   -6.245064|   -4.375933|   -4.288021|   -6.263867|
|        1489|   -6.247531|   -4.371759|   -4.288632|   -6.264860|
|        1490|   -6.250059|   -4.367544|   -4.289280|   -6.265715|
|        1491|   -6.252643|   -4.363298|   -4.289962|   -6.266416|
|        1492|   -6.255272|   -4.359029|   -4.290673|   -6.266963|
|        1493|   -6.257939|   -4.354747|   -4.291411|   -6.267350|
|        1494|   -6.260640|   -4.350460|   -4.292176|   -6.267575|
|        1495|   -6.263369|   -4.346170|   -4.292973|   -6.267658|
|        1496|   -6.266125|   -4.341884|   -4.293800|   -6.267586|
|        1497|   -6.268911|   -4.337599|   -4.294650|   -6.267346|
|        1498|   -6.271729|   -4.333320|   -4.295562|   -6.266936|
|        1499|   -6.274589|   -4.329045|   -4.296565|   -6.266369|
|        1500|   -6.277513|   -4.324774|   -4.297623|   -6.265649|
|        1501|   -6.280496|   -4.320490|   -4.298355|   -6.264802|
|        1502|   -6.283559|   -4.316199|   -4.299241|   -6.263864|
|        1503|   -6.286680|   -4.311889|   -4.300227|   -6.262848|
|        1504|   -6.289927|   -4.307564|   -4.301420|   -6.261710|
|        1505|   -6.293318|   -4.303223|   -4.302849|   -6.260470|
|        1506|   -6.296865|   -4.298868|   -4.304530|   -6.259122|
|        1507|   -6.300583|   -4.294505|   -4.306478|   -6.257683|
|        1508|   -6.304480|   -4.290136|   -4.308699|   -6.256158|
|        1509|   -6.308570|   -4.285767|   -4.311198|   -6.254546|
|        1510|   -6.312862|   -4.281407|   -4.313978|   -6.252902|
|        1511|   -6.317356|   -4.277064|   -4.317038|   -6.251244|
|        1512|   -6.322068|   -4.272746|   -4.320378|   -6.249558|
|        1513|   -6.327006|   -4.268460|   -4.324001|   -6.247836|
|        1514|   -6.332182|   -4.264214|   -4.327910|   -6.246076|
|        1515|   -6.337596|   -4.260016|   -4.332110|   -6.244283|
|        1516|   -6.343274|   -4.255873|   -4.336608|   -6.242429|
|        1517|   -6.349228|   -4.251797|   -4.341410|   -6.240541|
|        1518|   -6.355462|   -4.247791|   -4.346518|   -6.238634|
|        1519|   -6.361982|   -4.243861|   -4.351937|   -6.236727|
|        1520|   -6.368816|   -4.240020|   -4.357666|   -6.234795|
|        1521|   -6.375961|   -4.236277|   -4.363709|   -6.232863|
|        1522|   -6.383418|   -4.232633|   -4.370064|   -6.230955|
|        1523|   -6.391190|   -4.229096|   -4.376728|   -6.229127|
|        1524|   -6.399285|   -4.225670|   -4.383699|   -6.227353|
|        1525|   -6.407693|   -4.222371|   -4.390978|   -6.225659|
|        1526|   -6.416399|   -4.219200|   -4.398536|   -6.224058|
|        1527|   -6.425377|   -4.216164|   -4.406343|   -6.222559|
|        1528|   -6.434617|   -4.213267|   -4.414299|   -6.221201|
|        1529|   -6.444064|   -4.210516|   -4.422395|   -6.220003|
|        1530|   -6.453674|   -4.207917|   -4.430630|   -6.218960|
|        1531|   -6.463405|   -4.205475|   -4.438963|   -6.218073|
|        1532|   -6.473197|   -4.203191|   -4.447340|   -6.217349|
|        1533|   -6.482987|   -4.201068|   -4.455703|   -6.216795|
|        1534|   -6.492706|   -4.199106|   -4.463991|   -6.216420|
|        1535|   -6.502291|   -4.197305|   -4.472135|   -6.216219|
|        1536|   -6.511682|   -4.195661|   -4.480051|   -6.216189|
|        1537|   -6.520804|   -4.194171|   -4.487720|   -6.216328|
|        1538|   -6.529603|   -4.192830|   -4.495105|   -6.216635|
|        1539|   -6.538039|   -4.191635|   -4.502171|   -6.217105|
|        1540|   -6.546076|   -4.190576|   -4.508899|   -6.217732|
|        1541|   -6.553700|   -4.189646|   -4.515279|   -6.218508|
|        1542|   -6.560903|   -4.188836|   -4.521312|   -6.219428|
|        1543|   -6.567698|   -4.188137|   -4.527014|   -6.220485|
|        1544|   -6.574109|   -4.187537|   -4.532407|   -6.221669|
|        1545|   -6.580169|   -4.187028|   -4.537517|   -6.222972|
|        1546|   -6.585925|   -4.186600|   -4.542382|   -6.224382|
|        1547|   -6.591427|   -4.186242|   -4.547036|   -6.225888|
|        1548|   -6.596731|   -4.185943|   -4.551517|   -6.227475|
|        1549|   -6.601896|   -4.185694|   -4.555863|   -6.229129|
|        1550|   -6.606973|   -4.185485|   -4.560098|   -6.230836|
|        1551|   -6.612020|   -4.185310|   -4.564249|   -6.232579|
|        1552|   -6.617083|   -4.185161|   -4.568343|   -6.234340|
|        1553|   -6.622199|   -4.185032|   -4.572397|   -6.236104|
|        1554|   -6.627402|   -4.184919|   -4.576423|   -6.237856|
|        1555|   -6.632714|   -4.184820|   -4.580420|   -6.239580|
|        1556|   -6.638144|   -4.184735|   -4.584382|   -6.241266|
|        1557|   -6.643689|   -4.184665|   -4.588298|   -6.242904|
|        1558|   -6.649338|   -4.184614|   -4.592145|   -6.244487|
|        1559|   -6.655067|   -4.184584|   -4.595903|   -6.246009|
|        1560|   -6.660841|   -4.184581|   -4.599548|   -6.247468|
|        1561|   -6.666617|   -4.184612|   -4.603050|   -6.248868|
|        1562|   -6.672338|   -4.184683|   -4.606378|   -6.250211|
|        1563|   -6.677941|   -4.184800|   -4.609501|   -6.251506|
|        1564|   -6.683391|   -4.184969|   -4.612363|   -6.252767|
|        1565|   -6.688570|   -4.185201|   -4.614949|   -6.254001|
|        1566|   -6.693372|   -4.185501|   -4.617236|   -6.255218|
|        1567|   -6.697714|   -4.185880|   -4.619198|   -6.256429|
|        1568|   -6.701492|   -4.186340|   -4.620813|   -6.257648|
|        1569|   -6.704626|   -4.186889|   -4.622059|   -6.258890|
|        1570|   -6.707019|   -4.187530|   -4.622918|   -6.260160|
|        1571|   -6.708592|   -4.188267|   -4.623376|   -6.261462|
|        1572|   -6.709276|   -4.189105|   -4.623427|   -6.262801|
|        1573|   -6.709026|   -4.190046|   -4.623066|   -6.264183|
|        1574|   -6.707810|   -4.191090|   -4.622294|   -6.265609|
|        1575|   -6.705613|   -4.192239|   -4.621125|   -6.267079|
|        1576|   -6.702444|   -4.193495|   -4.619565|   -6.268587|
|        1577|   -6.698325|   -4.194858|   -4.617633|   -6.270125|
|        1578|   -6.693302|   -4.196328|   -4.615350|   -6.271679|
|        1579|   -6.687442|   -4.197905|   -4.612730|   -6.273240|
|        1580|   -6.680843|   -4.199585|   -4.609784|   -6.274792|
|        1581|   -6.673522|   -4.201365|   -4.606549|   -6.276319|
|        1582|   -6.665555|   -4.203243|   -4.603054|   -6.277801|
|        1583|   -6.657042|   -4.205213|   -4.599328|   -6.279224|
|        1584|   -6.648046|   -4.207273|   -4.595401|   -6.280570|
|        1585|   -6.638629|   -4.209418|   -4.591295|   -6.281811|
|        1586|   -6.628904|   -4.211639|   -4.587043|   -6.282921|
|        1587|   -6.618923|   -4.213932|   -4.582670|   -6.283879|
|        1588|   -6.608749|   -4.216292|   -4.578200|   -6.284662|
|        1589|   -6.598468|   -4.218713|   -4.573658|   -6.285259|
|        1590|   -6.588130|   -4.221194|   -4.569069|   -6.285656|
|        1591|   -6.577798|   -4.223733|   -4.564454|   -6.285835|
|        1592|   -6.567507|   -4.226323|   -4.559837|   -6.285798|
|        1593|   -6.557291|   -4.228957|   -4.555241|   -6.285576|
|        1594|   -6.547173|   -4.231624|   -4.550691|   -6.285126|
|        1595|   -6.537227|   -4.234316|   -4.546209|   -6.284407|
|        1596|   -6.527414|   -4.237027|   -4.541796|   -6.283389|
|        1597|   -6.517774|   -4.239751|   -4.537473|   -6.282091|
|        1598|   -6.508308|   -4.242482|   -4.533272|   -6.280473|
|        1599|   -6.499051|   -4.245219|   -4.529207|   -6.278552|
|        1600|   -6.489939|   -4.247953|   -4.525301|   -6.276396|
|        1601|   -6.481134|   -4.250694|   -4.521562|   -6.273866|
|        1602|   -6.472603|   -4.253437|   -4.517996|   -6.270996|
|        1603|   -6.464311|   -4.256176|   -4.514626|   -6.267889|
|        1604|   -6.456210|   -4.258909|   -4.511460|   -6.264517|
|        1605|   -6.448412|   -4.261643|   -4.508513|   -6.260774|
|        1606|   -6.440777|   -4.264395|   -4.505809|   -6.256741|
|        1607|   -6.433427|   -4.267151|   -4.503334|   -6.252465|
|        1608|   -6.426318|   -4.269912|   -4.501106|   -6.248029|
|        1609|   -6.419339|   -4.272683|   -4.498922|   -6.243538|
|        1610|   -6.412751|   -4.275476|   -4.496808|   -6.238801|
|        1611|   -6.406222|   -4.278315|   -4.494920|   -6.233950|
|        1612|   -6.399854|   -4.281187|   -4.493293|   -6.229474|
|        1613|   -6.393602|   -4.284110|   -4.491947|   -6.225041|
|        1614|   -6.387630|   -4.287109|   -4.490903|   -6.220697|
|        1615|   -6.381785|   -4.290176|   -4.490167|   -6.216305|
|        1616|   -6.375994|   -4.293350|   -4.489761|   -6.212077|
|        1617|   -6.370430|   -4.296619|   -4.489685|   -6.207981|
|        1618|   -6.364890|   -4.299999|   -4.489965|   -6.204175|
|        1619|   -6.359555|   -4.303491|   -4.490598|   -6.200630|
|        1620|   -6.354275|   -4.307110|   -4.491593|   -6.197464|
|        1621|   -6.349138|   -4.310827|   -4.492934|   -6.194511|
|        1622|   -6.344091|   -4.314647|   -4.494645|   -6.191966|
|        1623|   -6.339059|   -4.318532|   -4.496718|   -6.189725|
|        1624|   -6.334008|   -4.322459|   -4.499155|   -6.187858|
|        1625|   -6.329084|   -4.326421|   -4.501977|   -6.186204|
|        1626|   -6.324152|   -4.330397|   -4.505186|   -6.184705|
|        1627|   -6.319190|   -4.334355|   -4.508764|   -6.183287|
|        1628|   -6.314251|   -4.338268|   -4.512714|   -6.181958|
|        1629|   -6.309314|   -4.342119|   -4.517070|   -6.180647|
|        1630|   -6.304305|   -4.345883|   -4.521854|   -6.179385|
|        1631|   -6.299344|   -4.349547|   -4.527088|   -6.178122|
|        1632|   -6.294396|   -4.353103|   -4.532814|   -6.176866|
|        1633|   -6.289461|   -4.356547|   -4.539043|   -6.175599|
|        1634|   -6.284563|   -4.359884|   -4.545785|   -6.174300|
|        1635|   -6.279833|   -4.363096|   -4.552307|   -6.173034|
|        1636|   -6.275583|   -4.366146|   -4.556071|   -6.171951|
|        1637|   -6.271229|   -4.369167|   -4.559145|   -6.170764|
|        1638|   -6.266950|   -4.372124|   -4.561999|   -6.169513|
|        1639|   -6.262741|   -4.375031|   -4.564787|   -6.168264|
|        1640|   -6.258669|   -4.377921|   -4.567665|   -6.167092|
|        1641|   -6.254781|   -4.380811|   -4.570733|   -6.166044|
|        1642|   -6.251079|   -4.383711|   -4.573992|   -6.165147|
|        1643|   -6.247547|   -4.386607|   -4.577383|   -6.164411|
|        1644|   -6.244155|   -4.389482|   -4.580833|   -6.163848|
|        1645|   -6.240878|   -4.392319|   -4.584257|   -6.163461|
|        1646|   -6.237680|   -4.395114|   -4.587553|   -6.163260|
|        1647|   -6.234528|   -4.397865|   -4.590638|   -6.163269|
|        1648|   -6.231385|   -4.400586|   -4.593393|   -6.163489|
|        1649|   -6.228228|   -4.403281|   -4.595763|   -6.163920|
|        1650|   -6.225055|   -4.405968|   -4.597699|   -6.164575|
|        1651|   -6.221848|   -4.408674|   -4.599221|   -6.165450|
|        1652|   -6.218626|   -4.411423|   -4.600387|   -6.166529|
|        1653|   -6.215388|   -4.414239|   -4.601291|   -6.167803|
|        1654|   -6.212170|   -4.417144|   -4.602047|   -6.169258|
|        1655|   -6.208975|   -4.420153|   -4.602748|   -6.170894|
|        1656|   -6.205841|   -4.423271|   -4.603451|   -6.172715|
|        1657|   -6.202764|   -4.426501|   -4.604177|   -6.174692|
|        1658|   -6.199764|   -4.429822|   -4.604929|   -6.176804|
|        1659|   -6.196829|   -4.433217|   -4.605670|   -6.179044|
|        1660|   -6.193961|   -4.436661|   -4.606350|   -6.181349|
|        1661|   -6.191144|   -4.440120|   -4.606937|   -6.183683|
|        1662|   -6.188364|   -4.443583|   -4.607390|   -6.186002|
|        1663|   -6.185614|   -4.447005|   -4.607696|   -6.188257|
|        1664|   -6.182892|   -4.450377|   -4.607865|   -6.190434|
|        1665|   -6.180199|   -4.453673|   -4.607891|   -6.192465|
|        1666|   -6.177523|   -4.456874|   -4.607781|   -6.194312|
|        1667|   -6.174875|   -4.459979|   -4.607541|   -6.195961|
|        1668|   -6.172247|   -4.462975|   -4.607161|   -6.197395|
|        1669|   -6.169644|   -4.465858|   -4.606674|   -6.198607|
|        1670|   -6.167062|   -4.468625|   -4.606060|   -6.199586|
|        1671|   -6.164507|   -4.471275|   -4.605377|   -6.200337|
|        1672|   -6.161980|   -4.473821|   -4.604605|   -6.200871|
|        1673|   -6.159485|   -4.476251|   -4.603802|   -6.201205|
|        1674|   -6.157057|   -4.478559|   -4.602114|   -6.201411|
|        1675|   -6.154592|   -4.480767|   -4.598962|   -6.201530|
|        1676|   -6.151969|   -4.482920|   -4.595140|   -6.201471|
|        1677|   -6.149330|   -4.485011|   -4.591092|   -6.201274|
|        1678|   -6.146759|   -4.487022|   -4.587048|   -6.200954|
|        1679|   -6.144276|   -4.488990|   -4.583133|   -6.200532|
|        1680|   -6.141877|   -4.490877|   -4.579378|   -6.200021|
|        1681|   -6.139559|   -4.492728|   -4.575779|   -6.199440|
|        1682|   -6.137316|   -4.494508|   -4.572348|   -6.198814|
|        1683|   -6.135148|   -4.496242|   -4.569074|   -6.198139|
|        1684|   -6.133048|   -4.497919|   -4.565968|   -6.197435|
|        1685|   -6.131016|   -4.499549|   -4.563023|   -6.196702|
|        1686|   -6.129053|   -4.501141|   -4.560233|   -6.195953|
|        1687|   -6.127149|   -4.502683|   -4.557596|   -6.195183|
|        1688|   -6.125299|   -4.504198|   -4.555074|   -6.194396|
|        1689|   -6.123490|   -4.505668|   -4.552688|   -6.193617|
|        1690|   -6.121731|   -4.507109|   -4.550430|   -6.192807|
|        1691|   -6.120006|   -4.508523|   -4.548277|   -6.192032|
|        1692|   -6.118326|   -4.509905|   -4.546237|   -6.191233|
|        1693|   -6.116686|   -4.511269|   -4.544284|   -6.190450|
|        1694|   -6.115085|   -4.512611|   -4.542413|   -6.189651|
|        1695|   -6.113526|   -4.513939|   -4.540620|   -6.188880|
|        1696|   -6.112015|   -4.515281|   -4.538896|   -6.188114|
|        1697|   -6.110545|   -4.516639|   -4.537245|   -6.187467|
|        1698|   -6.109128|   -4.518013|   -4.535672|   -6.186858|
|        1699|   -6.107758|   -4.519426|   -4.534173|   -6.186243|
|        1700|   -6.106440|   -4.520869|   -4.532752|   -6.185663|
|        1701|   -6.105180|   -4.522384|   -4.531424|   -6.185125|
|        1702|   -6.103973|   -4.523999|   -4.530185|   -6.184657|
|        1703|   -6.102821|   -4.525694|   -4.529022|   -6.184259|
|        1704|   -6.101723|   -4.527492|   -4.527931|   -6.183930|
|        1705|   -6.100659|   -4.529378|   -4.526912|   -6.183636|
|        1706|   -6.099666|   -4.531417|   -4.525987|   -6.183427|
|        1707|   -6.098714|   -4.533599|   -4.525129|   -6.183296|
|        1708|   -6.097790|   -4.535885|   -4.524340|   -6.183297|
|        1709|   -6.096924|   -4.538292|   -4.523631|   -6.183495|
|        1710|   -6.096081|   -4.540905|   -4.522989|   -6.183778|
|        1711|   -6.095310|   -4.543675|   -4.522413|   -6.184124|
|        1712|   -6.094547|   -4.546634|   -4.521908|   -6.184654|
|        1713|   -6.093826|   -4.549762|   -4.521463|   -6.185272|
|        1714|   -6.093141|   -4.553060|   -4.521079|   -6.186041|
|        1715|   -6.092467|   -4.556563|   -4.520750|   -6.187012|
|        1716|   -6.091829|   -4.560245|   -4.520486|   -6.188112|
|        1717|   -6.091242|   -4.564119|   -4.520290|   -6.189298|
|        1718|   -6.090671|   -4.568195|   -4.520156|   -6.190641|
|        1719|   -6.090133|   -4.572451|   -4.520097|   -6.192082|
|        1720|   -6.089621|   -4.576901|   -4.520111|   -6.193637|
|        1721|   -6.089145|   -4.581535|   -4.520204|   -6.195400|
|        1722|   -6.088692|   -4.586346|   -4.520384|   -6.197288|
|        1723|   -6.088300|   -4.591327|   -4.520631|   -6.199254|
|        1724|   -6.087928|   -4.596443|   -4.520960|   -6.201375|
|        1725|   -6.087588|   -4.601657|   -4.521377|   -6.203649|
|        1726|   -6.087290|   -4.606980|   -4.521881|   -6.206012|
|        1727|   -6.087040|   -4.612375|   -4.522476|   -6.208536|
|        1728|   -6.086818|   -4.617794|   -4.523172|   -6.211215|
|        1729|   -6.086651|   -4.623211|   -4.523969|   -6.213912|
|        1730|   -6.086524|   -4.628628|   -4.524857|   -6.216650|
|        1731|   -6.086446|   -4.633985|   -4.525837|   -6.219413|
|        1732|   -6.086399|   -4.639209|   -4.526916|   -6.222314|
|        1733|   -6.086425|   -4.644297|   -4.528091|   -6.225193|
|        1734|   -6.086508|   -4.649205|   -4.529369|   -6.228066|
|        1735|   -6.086648|   -4.653847|   -4.530739|   -6.231012|
|        1736|   -6.086845|   -4.658171|   -4.532207|   -6.233992|
|        1737|   -6.087120|   -4.662114|   -4.533773|   -6.236935|
