scsub> Executing:  'cd /home/hem1dev/Codes/SU2_Github_Mark_Test/SU2/Venturi'


WARNING: CONV_CRITERIA is deprecated. SU2 will choose the criteria automatically based on the CONV_FIELD.
That is, RESIDUAL for any RMS_* BGS_* value, and CAUCHY for coefficients such as DRAG etc.


-------------------------------------------------------------------------
|    ___ _   _ ___                                                      |
|   / __| | | |_  )   Release 7.1.1 "Blackbird"                         |
|   \__ \ |_| |/ /                                                      |
|   |___/\___//___|   Suite (Computational Fluid Dynamics Code)         |
|                                                                       |
-------------------------------------------------------------------------
| SU2 Project Website: https://su2code.github.io                        |
|                                                                       |
| The SU2 Project is maintained by the SU2 Foundation                   |
| (http://su2foundation.org)                                            |
-------------------------------------------------------------------------
| Copyright 2012-2021, SU2 Contributors                                 |
|                                                                       |
| SU2 is free software; you can redistribute it and/or                  |
| modify it under the terms of the GNU Lesser General Public            |
| License as published by the Free Software Foundation; either          |
| version 2.1 of the License, or (at your option) any later version.    |
|                                                                       |
| SU2 is distributed in the hope that it will be useful,                |
| but WITHOUT ANY WARRANTY; without even the implied warranty of        |
| MERCHANTABILITY or FITNESS FOR A PARTICULAR PURPOSE. See the GNU      |
| Lesser General Public License for more details.                       |
|                                                                       |
| You should have received a copy of the GNU Lesser General Public      |
| License along with SU2. If not, see <http://www.gnu.org/licenses/>.   |
-------------------------------------------------------------------------


WARNING: CONV_CRITERIA is deprecated. SU2 will choose the criteria automatically based on the CONV_FIELD.
That is, RESIDUAL for any RMS_* BGS_* value, and CAUCHY for coefficients such as DRAG etc.


Parsing config file for zone 0


WARNING: CONV_CRITERIA is deprecated. SU2 will choose the criteria automatically based on the CONV_FIELD.
That is, RESIDUAL for any RMS_* BGS_* value, and CAUCHY for coefficients such as DRAG etc.


----------------- Physical Case Definition ( Zone 0 ) -------------------
Incompressible Laminar Navier-Stokes' equations.
No restart solution, use the values at infinity (freestream).
Dimensional simulation.
The reference area is 1 m^2.
The semi-span will be computed using the max y(3D) value.
The reference length is 1 m.
Input mesh file name: c6_cms_venturi.cgns

--------------- Space Numerical Integration ( Zone 0 ) ------------------
Flux difference splitting (FDS) upwind scheme for the flow inviscid terms.
Second order integration in space, with slope limiter.
No slope-limiting method. 
Average of gradients with correction (viscous flow terms).
Gradient for upwind reconstruction: Green-Gauss.
Gradient for viscous and source terms: Green-Gauss.

--------------- Time Numerical Integration  ( Zone 0 ) ------------------
Local time stepping (steady state simulation).
Euler implicit method for the flow equations.
FGMRES is used for solving the linear system.
Using a ILU(0) preconditioning.
Convergence criteria of the linear solver: 1e-05.
Max number of linear iterations: 10.
No CFL adaptation.
Courant-Friedrichs-Lewy number:       35

------------------ Convergence Criteria  ( Zone 0 ) ---------------------
Maximum number of solver subiterations: 10000.
Begin convergence monitoring at iteration 10.
Residual minimum value: 1e-10.
Cauchy series min. value: 1e-06.
Number of Cauchy elements: 100.
Begin windowed time average at iteration 0.

-------------------- Output Information ( Zone 0 ) ----------------------
Writing solution files every 1000 iterations.
Writing the convergence history file every 1 inner iterations.
Writing the screen convergence history every 1 inner iterations.
The tabular file format is CSV (.csv).
Convergence history file name: history.
Forces breakdown file name: forces_breakdown.dat.
Surface file name: surface_flow_venturi_mixturedensity_30kW_fine.
Volume file name: flow_venturi_mixturedensity_30kW_fine.
Restart file name: restart_venturi_mixturedensity_30kW_fine.dat.

------------- Config File Boundary Information ( Zone 0 ) ---------------
+-----------------------------------------------------------------------+
|                        Marker Type|                        Marker Name|
+-----------------------------------------------------------------------+
|                     Symmetry plane|                               axis|
+-----------------------------------------------------------------------+
|                     Inlet boundary|                          gas_inlet|
|                                   |                          air_inlet|
+-----------------------------------------------------------------------+
|                    Outlet boundary|                             outlet|
+-----------------------------------------------------------------------+
|                     Heat flux wall|            wall-component1-surface|
+-----------------------------------------------------------------------+

-------------------- Output Preprocessing ( Zone 0 ) --------------------
Screen output fields: INNER_ITER, RMS_PRESSURE, RMS_VELOCITY-X, RMS_VELOCITY-Y, RMS_PASSIVE_SCALAR
History output group(s): RMS_RES, AERO_COEFF, FLOW_COEFF
Ignoring Convergence Field(s): RMS_DENSITY RMS_TKE 
Convergence field(s): RMS_PRESSURE, RMS_VELOCITY-X, RMS_VELOCITY-Y
Warning: No (valid) fields chosen for time convergence monitoring. Time convergence monitoring inactive.
  Info: Ignoring the following volume output fields/groups:
  SOURCE, LOOKUP
Volume output fields: DENSITY, SOLUTION, PRIMITIVE, RESIDUAL, COORDINATES

------------------- Geometry Preprocessing ( Zone 0 ) -------------------
Reading the CGNS file: c6_cms_venturi.cgns.
CGNS file contains 1 database(s).
Database 1, Base:  cell dimension of 2, physical dimension of 2.
1 total zone(s).
Zone 1, Zone: 292948 total vertices, 295883 total elements.
Loading CoordinateX values into linear partitions.
Loading CoordinateY values into linear partitions.
Distributing connectivity across all ranks.
Number of connectivity sections is 6.
Section gas_inlet contains 51 elements of type Mixed.
Section air_inlet contains 150 elements of type Mixed.
Section outlet contains 157 elements of type Mixed.
Section axis contains 1721 elements of type Mixed.
Section component1-surface contains 290183 elements of type Mixed.
Section wall-component1-surface contains 3621 elements of type Mixed.
Loading surface section gas_inlet from file.
Loading surface section air_inlet from file.
Loading surface section outlet from file.
Loading surface section axis from file.
Loading volume section component1-surface from file.
Loading surface section wall-component1-surface from file.
Two dimensional problem.
292948 grid points before partitioning.
290183 volume elements before partitioning.
5 surface markers.
51 boundary elements in index 0 (Marker = gas_inlet).
150 boundary elements in index 1 (Marker = air_inlet).
157 boundary elements in index 2 (Marker = outlet).
1721 boundary elements in index 3 (Marker = axis).
3621 boundary elements in index 4 (Marker = wall-component1-surface).
Executing the partitioning functions.
Building the graph adjacency structure.
Calling ParMETIS... graph partitioning complete (8746 edge cuts).
Distributing ParMETIS coloring.
Rebalancing vertices.
Rebalancing volume element connectivity.
Rebalancing markers and surface elements.
310564 vertices including ghost points. 
298925 interior elements including halo cells. 
176 triangles.
298749 quadrilaterals.
Establishing MPI communication patterns.
Setting point connectivity.
Renumbering points (Reverse Cuthill McKee Ordering).
Recomputing point connectivity.
Setting element connectivity.
Checking the numerical grid orientation.
All volume elements are correctly orientend.
All surface elements are correctly orientend.
Identifying edges and vertices.
Setting the control volume structure.
Area of the computational grid: 0.00281152.
Searching for the closest normal neighbors to the surfaces.
Storing a mapping from global to local point index.
Compute the surface curvature.
Max K: 25766.3. Mean K: 66.0693. Standard deviation K: 1007.76.
Checking for periodicity.
Computing mesh quality statistics for the dual control volumes.
+--------------------------------------------------------------+
|           Mesh Quality Metric|        Minimum|        Maximum|
+--------------------------------------------------------------+
|    Orthogonality Angle (deg.)|        45.2115|             90|
|     CV Face Area Aspect Ratio|              1|        10.3208|
|           CV Sub-Volume Ratio|              1|        9.85984|
+--------------------------------------------------------------+
Finding max control volume width.
Communicating number of neighbors.
Wetted area = 0 m.
Area projection in the x-plane = 0 m, y-plane = 0 m.
Max. coordinate in the x-direction = -1e+10 m, y-direction = -1e+10 m.
Min. coordinate in the x-direction = 1e+10 m, y-direction = 1e+10 m.
Checking if Euler & Symmetry markers are straight/plane:
Boundary marker axis is a single straight.
Computing wall distances.

-------------------- Solver Preprocessing ( Zone 0 ) --------------------
Incompressible flow: rho_ref, vel_ref, temp_ref, p_ref
are set to 1.0 in order to perform a dimensional calculation.
Force coefficients computed using initial values.
The reference area for force coeffs. is 1 m^2.
The reference length for force coeffs. is 1 m.
The pressure is decomposed into thermodynamic and dynamic components.
The initial value of the dynamic pressure is 0.
Mach number: 0, computed using fluid speed of sound.
For external flows, the initial state is imposed at the far-field.
Angle of attack (deg): 0, computed using the initial velocity.
Side slip angle (deg): 0, computed using the initial velocity.
Reynolds number per meter: 66852.4, computed using initial values.
Reynolds number is a byproduct of inputs only (not used internally).
SI units only. The grid should be dimensional (meters).
Energy equation is active and coupled for variable density.

-- Models:
+------------------------------------------------------------------------------+
|          Viscosity Model|        Conductivity Model|              Fluid Model|
+------------------------------------------------------------------------------+
|               SUTHERLAND|          CONSTANT_PRANDTL|+------------------------------------------------------------------------------+
-- Fluid properties:
+------------------------------------------------------------------------------+
|                  Name|    Dim. value|    Ref. value|      Unit|Non-dim. value|
+------------------------------------------------------------------------------+
|        Ref. Viscosity|     1.716e-05|             1|   N.s/m^2|     1.716e-05|
|      Sutherland Temp.|        273.15|             1|         K|        273.15|
|     Sutherland Const.|         110.4|             1|         K|         110.4|
+------------------------------------------------------------------------------+
|        Prandtl (Lam.)|             -|             -|         -|          0.72|
|       Prandtl (Turb.)|             -|             -|         -|           0.9|
+------------------------------------------------------------------------------+
-- Initial and free-stream conditions:
+------------------------------------------------------------------------------+
|                  Name|    Dim. value|    Ref. value|      Unit|Non-dim. value|
+------------------------------------------------------------------------------+
|      Dynamic Pressure|             0|             1|        Pa|             0|
|        Total Pressure|           0.6|             1|        Pa|           0.6|
|               Density|           1.2|             1|    kg/m^3|           1.2|
|           Temperature|           300|             1|         K|           300|
|            Velocity-X|             1|             1|       m/s|             1|
|            Velocity-Y|             0|             1|       m/s|             0|
|    Velocity Magnitude|             1|             1|       m/s|             1|
+------------------------------------------------------------------------------+
|             Viscosity|     1.795e-05|             1|   N.s/m^2|     1.795e-05|
|          Conductivity|             -|             1|   W/m^2.K|             -|
+------------------------------------------------------------------------------+
|           Mach Number|             -|             -|         -|             0|
|       Reynolds Number|             -|             -|         -|       66852.4|
+------------------------------------------------------------------------------+
Initialize Jacobian structure (Navier-Stokes). MG level: 0.
Initialize Jacobian structure (passive scalar model).

------------------- Numerics Preprocessing ( Zone 0 ) -------------------

----------------- Integration Preprocessing ( Zone 0 ) ------------------

------------------- Iteration Preprocessing ( Zone 0 ) ------------------
Euler/Navier-Stokes/RANS fluid iteration.

------------------------------ Begin Solver -----------------------------

Simulation Run using the Single-zone Driver
Initializing passive scalar (initial condition).
initialization = 1 1
+----------------------------------------------------------------+
|  Inner_Iter|      rms[P]|      rms[U]|      rms[V]|      rms[c]|
+----------------------------------------------------------------+
|           0|   -4.749965|   -4.481098|   -3.999037|   -5.202160|
|           1|   -5.137133|   -4.471759|   -4.158765|   -5.064342|
|           2|   -5.322046|   -4.573546|   -4.194078|   -5.096332|
|           3|   -5.535203|   -4.703247|   -4.355485|   -5.203195|
|           4|   -5.651198|   -4.758235|   -4.421702|   -5.281411|
|           5|   -5.691310|   -4.784530|   -4.451217|   -5.325172|
|           6|   -5.728023|   -4.800211|   -4.473980|   -5.352486|
|           7|   -5.755472|   -4.812571|   -4.495263|   -5.371457|
|           8|   -5.759966|   -4.821328|   -4.522931|   -5.383269|
|           9|   -5.747558|   -4.825038|   -4.565576|   -5.390189|
|          10|   -5.724416|   -4.823826|   -4.627747|   -5.396134|
|          11|   -5.703201|   -4.817506|   -4.711027|   -5.404819|
|          12|   -5.692957|   -4.806515|   -4.812386|   -5.419099|
|          13|   -5.695796|   -4.792646|   -4.911156|   -5.440718|
|          14|   -5.709252|   -4.778378|   -4.960702|   -5.470864|
|          15|   -5.730011|   -4.765849|   -4.943006|   -5.508982|
|          16|   -5.754658|   -4.756362|   -4.898801|   -5.553045|
|          17|   -5.779841|   -4.750879|   -4.858563|   -5.600345|
|          18|   -5.802211|   -4.749586|   -4.830399|   -5.647746|
|          19|   -5.818651|   -4.751809|   -4.812771|   -5.692218|
|          20|   -5.824730|   -4.756228|   -4.799102|   -5.731127|
|          21|   -5.814615|   -4.761298|   -4.779091|   -5.762394|
|          22|   -5.786280|   -4.765703|   -4.740375|   -5.785232|
|          23|   -5.747437|   -4.768686|   -4.678342|   -5.801229|
|          24|   -5.709978|   -4.769993|   -4.611705|   -5.812400|
|          25|   -5.684284|   -4.769575|   -4.557240|   -5.819944|
|          26|   -5.675716|   -4.767947|   -4.523100|   -5.821522|
|          27|   -5.684347|   -4.766088|   -4.509478|   -5.814435|
|          28|   -5.707757|   -4.765109|   -4.512132|   -5.797448|
|          29|   -5.742332|   -4.765739|   -4.526130|   -5.772788|
|          30|   -5.783429|   -4.767953|   -4.546967|   -5.743687|
|          31|   -5.825544|   -4.770892|   -4.571250|   -5.713495|
|          32|   -5.862724|   -4.773170|   -4.597635|   -5.685119|
|          33|   -5.889812|   -4.773373|   -4.626864|   -5.660399|
|          34|   -5.904496|   -4.770545|   -4.660707|   -5.640662|
|          35|   -5.908286|   -4.764431|   -4.701192|   -5.626567|
|          36|   -5.905529|   -4.755416|   -4.749654|   -5.618249|
|          37|   -5.901097|   -4.744289|   -4.806093|   -5.615309|
|          38|   -5.898756|   -4.731991|   -4.868200|   -5.617095|
|          39|   -5.900704|   -4.719423|   -4.930082|   -5.622771|
|          40|   -5.907758|   -4.707308|   -4.982013|   -5.631241|
|          41|   -5.919610|   -4.696189|   -5.012845|   -5.641586|
|          42|   -5.935009|   -4.686414|   -5.017681|   -5.652549|
|          43|   -5.951861|   -4.678164|   -5.001465|   -5.663086|
|          44|   -5.967429|   -4.671509|   -4.973334|   -5.672368|
|          45|   -5.978876|   -4.666451|   -4.940301|   -5.679886|
|          46|   -5.984230|   -4.662958|   -4.906129|   -5.685420|
|          47|   -5.983302|   -4.660951|   -4.872814|   -5.689006|
|          48|   -5.977830|   -4.660278|   -4.841837|   -5.690830|
|          49|   -5.970655|   -4.660683|   -4.814467|   -5.691094|
|          50|   -5.964600|   -4.661797|   -4.791623|   -5.689953|
|          51|   -5.961746|   -4.663166|   -4.773762|   -5.687534|
|          52|   -5.963215|   -4.664326|   -4.760861|   -5.683947|
|          53|   -5.969256|   -4.664891|   -4.752591|   -5.679230|
|          54|   -5.979407|   -4.664627|   -4.748607|   -5.673585|
|          55|   -5.992660|   -4.663483|   -4.748656|   -5.667250|
|          56|   -6.007623|   -4.661569|   -4.752616|   -5.660550|
|          57|   -6.022688|   -4.659086|   -4.760671|   -5.653809|
|          58|   -6.036316|   -4.656254|   -4.773052|   -5.647360|
|          59|   -6.047326|   -4.653242|   -4.789999|   -5.641499|
|          60|   -6.055159|   -4.650129|   -4.811740|   -5.636454|
|          61|   -6.059982|   -4.646898|   -4.838067|   -5.632360|
|          62|   -6.062541|   -4.643453|   -4.868135|   -5.629268|
|          63|   -6.063866|   -4.639656|   -4.900254|   -5.627165|
|          64|   -6.064982|   -4.635376|   -4.931691|   -5.625965|
|          65|   -6.066690|   -4.630528|   -4.958811|   -5.625539|
|          66|   -6.069464|   -4.625106|   -4.977900|   -5.625728|
|          67|   -6.073432|   -4.619197|   -4.986630|   -5.626354|
|          68|   -6.078412|   -4.612967|   -4.985162|   -5.627249|
|          69|   -6.083997|   -4.606640|   -4.975889|   -5.628303|
|          70|   -6.089657|   -4.600458|   -4.962115|   -5.629394|
|          71|   -6.094862|   -4.594650|   -4.946750|   -5.630391|
|          72|   -6.099208|   -4.589407|   -4.931717|   -5.631255|
|          73|   -6.102501|   -4.584856|   -4.917962|   -5.631897|
|          74|   -6.104794|   -4.581052|   -4.905843|   -5.632297|
|          75|   -6.106352|   -4.577977|   -4.895263|   -5.632415|
|          76|   -6.107576|   -4.575553|   -4.886021|   -5.632252|
|          77|   -6.108890|   -4.573648|   -4.877894|   -5.631786|
|          78|   -6.110650|   -4.572114|   -4.870803|   -5.631001|
|          79|   -6.113081|   -4.570790|   -4.864824|   -5.629908|
|          80|   -6.116241|   -4.569531|   -4.860127|   -5.628524|
|          81|   -6.120027|   -4.568220|   -4.857021|   -5.626906|
|          82|   -6.124204|   -4.566781|   -4.855775|   -5.625083|
|          83|   -6.128457|   -4.565184|   -4.856607|   -5.623111|
|          84|   -6.132458|   -4.563430|   -4.859628|   -5.621031|
|          85|   -6.135933|   -4.561550|   -4.864801|   -5.618901|
|          86|   -6.138715|   -4.559579|   -4.871898|   -5.616777|
|          87|   -6.140773|   -4.557551|   -4.880542|   -5.614697|
|          88|   -6.142205|   -4.555495|   -4.890180|   -5.612677|
|          89|   -6.143201|   -4.553429|   -4.900112|   -5.610735|
|          90|   -6.143997|   -4.551361|   -4.909624|   -5.608891|
|          91|   -6.144821|   -4.549300|   -4.918020|   -5.607159|
|          92|   -6.145846|   -4.547255|   -4.924769|   -5.605527|
|          93|   -6.147175|   -4.545241|   -4.929560|   -5.603997|
|          94|   -6.148825|   -4.543282|   -4.932330|   -5.602549|
|          95|   -6.150748|   -4.541406|   -4.933275|   -5.601183|
|          96|   -6.152845|   -4.539638|   -4.932731|   -5.599867|
|          97|   -6.155003|   -4.537996|   -4.931072|   -5.598577|
|          98|   -6.157114|   -4.536487|   -4.928633|   -5.597301|
|          99|   -6.159108|   -4.535101|   -4.925679|   -5.596033|
|         100|   -6.160956|   -4.533815|   -4.922390|   -5.594774|
|         101|   -6.162676|   -4.532598|   -4.918848|   -5.593509|
|         102|   -6.164319|   -4.531414|   -4.915062|   -5.592224|
|         103|   -6.165956|   -4.530225|   -4.911060|   -5.590918|
|         104|   -6.167655|   -4.528998|   -4.906875|   -5.589587|
|         105|   -6.169463|   -4.527710|   -4.902534|   -5.588247|
|         106|   -6.171402|   -4.526349|   -4.898064|   -5.586883|
|         107|   -6.173460|   -4.524914|   -4.893560|   -5.585501|
|         108|   -6.175599|   -4.523413|   -4.889064|   -5.584124|
|         109|   -6.177764|   -4.521858|   -4.884585|   -5.582748|
|         110|   -6.179894|   -4.520259|   -4.880078|   -5.581381|
|         111|   -6.181937|   -4.518619|   -4.875499|   -5.580002|
|         112|   -6.183858|   -4.516936|   -4.870756|   -5.578615|
|         113|   -6.185645|   -4.515200|   -4.865730|   -5.577237|
|         114|   -6.187306|   -4.513396|   -4.860231|   -5.575871|
|         115|   -6.188870|   -4.511507|   -4.854235|   -5.574500|
|         116|   -6.190370|   -4.509516|   -4.847822|   -5.573112|
|         117|   -6.191841|   -4.507406|   -4.841068|   -5.571705|
|         118|   -6.193306|   -4.505168|   -4.834111|   -5.570312|
|         119|   -6.194775|   -4.502796|   -4.827058|   -5.568899|
|         120|   -6.196247|   -4.500294|   -4.820077|   -5.567458|
|         121|   -6.197705|   -4.497681|   -4.813276|   -5.565954|
|         122|   -6.199130|   -4.494987|   -4.806764|   -5.564371|
|         123|   -6.200496|   -4.492259|   -4.800606|   -5.562682|
|         124|   -6.201788|   -4.489547|   -4.794801|   -5.560905|
|         125|   -6.202993|   -4.486906|   -4.789336|   -5.559042|
|         126|   -6.204112|   -4.484379|   -4.784160|   -5.557105|
|         127|   -6.205157|   -4.481994|   -4.779218|   -5.555000|
|         128|   -6.206144|   -4.479758|   -4.774490|   -5.552773|
|         129|   -6.207093|   -4.477657|   -4.769989|   -5.550604|
|         130|   -6.208020|   -4.475663|   -4.765760|   -5.548289|
|         131|   -6.208933|   -4.473748|   -4.761843|   -5.545827|
|         132|   -6.209832|   -4.471884|   -4.758310|   -5.543273|
|         133|   -6.210710|   -4.470057|   -4.755197|   -5.540710|
|         134|   -6.211554|   -4.468259|   -4.752521|   -5.538105|
|         135|   -6.212350|   -4.466488|   -4.750246|   -5.535520|
|         136|   -6.213086|   -4.464749|   -4.748327|   -5.532947|
|         137|   -6.213756|   -4.463047|   -4.746663|   -5.530339|
|         138|   -6.214353|   -4.461386|   -4.745131|   -5.527712|
|         139|   -6.214878|   -4.459767|   -4.743578|   -5.525095|
|         140|   -6.215332|   -4.458190|   -4.741851|   -5.522517|
|         141|   -6.215714|   -4.456649|   -4.739815|   -5.519831|
|         142|   -6.216022|   -4.455138|   -4.737349|   -5.517048|
|         143|   -6.216252|   -4.453649|   -4.734349|   -5.514268|
|         144|   -6.216398|   -4.452183|   -4.730758|   -5.511454|
|         145|   -6.216448|   -4.450738|   -4.726541|   -5.508616|
|         146|   -6.216393|   -4.449313|   -4.721470|   -5.505756|
|         147|   -6.216273|   -4.447910|   -4.715653|   -5.502976|
|         148|   -6.216125|   -4.446521|   -4.709142|   -5.500120|
|         149|   -6.215996|   -4.445139|   -4.702108|   -5.497266|
|         150|   -6.215928|   -4.443762|   -4.694780|   -5.494434|
|         151|   -6.215927|   -4.442389|   -4.687274|   -5.491722|
|         152|   -6.215991|   -4.441027|   -4.679677|   -5.489072|
|         153|   -6.216123|   -4.439690|   -4.672071|   -5.486479|
|         154|   -6.216326|   -4.438385|   -4.664457|   -5.484017|
|         155|   -6.216634|   -4.437115|   -4.656993|   -5.481619|
|         156|   -6.217059|   -4.435875|   -4.649755|   -5.479322|
|         157|   -6.217601|   -4.434654|   -4.642801|   -5.477140|
|         158|   -6.218254|   -4.433444|   -4.636150|   -5.475015|
|         159|   -6.219006|   -4.432237|   -4.629818|   -5.472984|
|         160|   -6.219841|   -4.431027|   -4.623802|   -5.471110|
|         161|   -6.220741|   -4.429812|   -4.618078|   -5.469386|
|         162|   -6.221702|   -4.428595|   -4.612634|   -5.467749|
|         163|   -6.222725|   -4.427376|   -4.607527|   -5.466192|
|         164|   -6.223789|   -4.426154|   -4.602750|   -5.464740|
|         165|   -6.224877|   -4.424934|   -4.598306|   -5.463362|
|         166|   -6.225967|   -4.423722|   -4.594204|   -5.462070|
|         167|   -6.227038|   -4.422523|   -4.590447|   -5.460859|
|         168|   -6.228069|   -4.421343|   -4.587037|   -5.459751|
|         169|   -6.229044|   -4.420191|   -4.583969|   -5.458753|
|         170|   -6.229951|   -4.419068|   -4.581171|   -5.457848|
|         171|   -6.230812|   -4.417983|   -4.578731|   -5.457038|
|         172|   -6.231624|   -4.416931|   -4.576649|   -5.456325|
|         173|   -6.232380|   -4.415936|   -4.574939|   -5.455699|
|         174|   -6.233069|   -4.415007|   -4.573601|   -5.455235|
|         175|   -6.233680|   -4.414152|   -4.572624|   -5.454872|
|         176|   -6.234215|   -4.413382|   -4.572016|   -5.454642|
|         177|   -6.234674|   -4.412702|   -4.571788|   -5.454520|
|         178|   -6.235063|   -4.412118|   -4.571943|   -5.454507|
|         179|   -6.235388|   -4.411628|   -4.572459|   -5.454626|
|         180|   -6.235663|   -4.411231|   -4.573330|   -5.454838|
|         181|   -6.235898|   -4.410922|   -4.574531|   -5.455168|
|         182|   -6.236100|   -4.410688|   -4.575965|   -5.455605|
|         183|   -6.236299|   -4.410519|   -4.577657|   -5.456122|
|         184|   -6.236501|   -4.410405|   -4.579564|   -5.456750|
|         185|   -6.236705|   -4.410336|   -4.581644|   -5.457427|
|         186|   -6.236903|   -4.410302|   -4.583848|   -5.458130|
|         187|   -6.237090|   -4.410295|   -4.586131|   -5.458843|
|         188|   -6.237262|   -4.410301|   -4.588452|   -5.459569|
|         189|   -6.237415|   -4.410314|   -4.590746|   -5.460307|
|         190|   -6.237554|   -4.410311|   -4.592930|   -5.461034|
|         191|   -6.237690|   -4.410273|   -4.594863|   -5.461758|
|         192|   -6.237871|   -4.410186|   -4.596640|   -5.462418|
|         193|   -6.238091|   -4.410032|   -4.598201|   -5.463097|
|         194|   -6.238347|   -4.409802|   -4.599532|   -5.463685|
|         195|   -6.238621|   -4.409492|   -4.600596|   -5.464285|
|         196|   -6.238906|   -4.409098|   -4.601369|   -5.464794|
|         197|   -6.239196|   -4.408620|   -4.601859|   -5.465295|
|         198|   -6.239487|   -4.408054|   -4.602053|   -5.465703|
|         199|   -6.239781|   -4.407399|   -4.601968|   -5.466057|
|         200|   -6.240081|   -4.406652|   -4.601636|   -5.466302|
|         201|   -6.240384|   -4.405815|   -4.601052|   -5.466421|
|         202|   -6.240696|   -4.404884|   -4.600249|   -5.466428|
|         203|   -6.241021|   -4.403863|   -4.599255|   -5.466300|
|         204|   -6.241357|   -4.402747|   -4.598092|   -5.466040|
|         205|   -6.241704|   -4.401530|   -4.596690|   -5.465615|
|         206|   -6.242094|   -4.400213|   -4.595101|   -5.465030|
|         207|   -6.242547|   -4.398798|   -4.593389|   -5.464229|
|         208|   -6.243062|   -4.397284|   -4.591576|   -5.463259|
|         209|   -6.243633|   -4.395682|   -4.589648|   -5.462039|
|         210|   -6.244267|   -4.394007|   -4.587641|   -5.460584|
|         211|   -6.244962|   -4.392273|   -4.585571|   -5.458892|
|         212|   -6.245721|   -4.390486|   -4.583421|   -5.457011|
|         213|   -6.246557|   -4.388649|   -4.581261|   -5.454969|
|         214|   -6.247471|   -4.386757|   -4.579089|   -5.452808|
|         215|   -6.248471|   -4.384806|   -4.576919|   -5.450575|
|         216|   -6.249574|   -4.382786|   -4.574756|   -5.448268|
|         217|   -6.250794|   -4.380695|   -4.572611|   -5.445867|
|         218|   -6.252142|   -4.378521|   -4.570489|   -5.443435|
|         219|   -6.253627|   -4.376273|   -4.568367|   -5.441036|
|         220|   -6.255261|   -4.373965|   -4.566215|   -5.438666|
|         221|   -6.257065|   -4.371619|   -4.564009|   -5.436301|
|         222|   -6.259060|   -4.369246|   -4.561803|   -5.434001|
|         223|   -6.261251|   -4.366862|   -4.559580|   -5.431787|
|         224|   -6.263634|   -4.364487|   -4.557356|   -5.429626|
|         225|   -6.266203|   -4.362139|   -4.555124|   -5.427595|
|         226|   -6.268954|   -4.359837|   -4.552893|   -5.425635|
|         227|   -6.271881|   -4.357601|   -4.550683|   -5.423824|
|         228|   -6.274981|   -4.355447|   -4.548480|   -5.422117|
|         229|   -6.278251|   -4.353392|   -4.546313|   -5.420591|
|         230|   -6.281688|   -4.351449|   -4.544193|   -5.419195|
|         231|   -6.285289|   -4.349633|   -4.542130|   -5.418013|
|         232|   -6.289048|   -4.347951|   -4.540153|   -5.416934|
|         233|   -6.292969|   -4.346409|   -4.538261|   -5.416043|
|         234|   -6.297059|   -4.345011|   -4.536468|   -5.415261|
|         235|   -6.301323|   -4.343759|   -4.534797|   -5.414740|
|         236|   -6.305762|   -4.342647|   -4.533272|   -5.414307|
|         237|   -6.310380|   -4.341675|   -4.531905|   -5.414086|
|         238|   -6.315177|   -4.340838|   -4.530711|   -5.413943|
|         239|   -6.320161|   -4.340132|   -4.529703|   -5.414023|
|         240|   -6.325333|   -4.339551|   -4.528896|   -5.414153|
|         241|   -6.330707|   -4.339085|   -4.528301|   -5.414485|
|         242|   -6.336284|   -4.338728|   -4.527932|   -5.414909|
|         243|   -6.342078|   -4.338467|   -4.527801|   -5.415412|
|         244|   -6.348090|   -4.338293|   -4.527919|   -5.416116|
|         245|   -6.354325|   -4.338191|   -4.528300|   -5.416740|
|         246|   -6.360784|   -4.338153|   -4.528953|   -5.417603|
|         247|   -6.367471|   -4.338168|   -4.529880|   -5.418369|
|         248|   -6.374383|   -4.338225|   -4.531090|   -5.419348|
|         249|   -6.381528|   -4.338318|   -4.532584|   -5.420266|
|         250|   -6.388899|   -4.338442|   -4.534363|   -5.421319|
|         251|   -6.396486|   -4.338593|   -4.536430|   -5.422421|
|         252|   -6.404314|   -4.338770|   -4.538769|   -5.423600|
|         253|   -6.412375|   -4.338969|   -4.541372|   -5.424810|
|         254|   -6.420654|   -4.339188|   -4.544235|   -5.426111|
|         255|   -6.429121|   -4.339428|   -4.547349|   -5.427496|
|         256|   -6.437745|   -4.339692|   -4.550698|   -5.428945|
|         257|   -6.446485|   -4.339985|   -4.554264|   -5.430460|
|         258|   -6.455304|   -4.340307|   -4.558028|   -5.432024|
|         259|   -6.464175|   -4.340659|   -4.561965|   -5.433666|
|         260|   -6.473059|   -4.341040|   -4.566052|   -5.435366|
|         261|   -6.481923|   -4.341450|   -4.570260|   -5.437073|
|         262|   -6.490726|   -4.341887|   -4.574557|   -5.438769|
|         263|   -6.499420|   -4.342346|   -4.578907|   -5.440483|
|         264|   -6.507967|   -4.342826|   -4.583271|   -5.442201|
|         265|   -6.516306|   -4.343319|   -4.587604|   -5.443945|
|         266|   -6.524397|   -4.343820|   -4.591860|   -5.445653|
|         267|   -6.532174|   -4.344320|   -4.595989|   -5.447300|
|         268|   -6.539608|   -4.344811|   -4.599936|   -5.448931|
|         269|   -6.546680|   -4.345282|   -4.603638|   -5.450521|
|         270|   -6.553289|   -4.345720|   -4.607037|   -5.452008|
|         271|   -6.559371|   -4.346113|   -4.610076|   -5.453413|
|         272|   -6.564870|   -4.346450|   -4.612695|   -5.454677|
|         273|   -6.569707|   -4.346716|   -4.614829|   -5.455783|
|         274|   -6.573842|   -4.346899|   -4.616416|   -5.456703|
|         275|   -6.577212|   -4.346982|   -4.617394|   -5.457409|
|         276|   -6.579788|   -4.346952|   -4.617705|   -5.457886|
|         277|   -6.581544|   -4.346791|   -4.617292|   -5.458106|
|         278|   -6.582457|   -4.346487|   -4.616103|   -5.458050|
|         279|   -6.582798|   -4.346023|   -4.614077|   -5.457698|
|         280|   -6.582586|   -4.345390|   -4.611160|   -5.457056|
|         281|   -6.581784|   -4.344580|   -4.607372|   -5.456065|
|         282|   -6.580430|   -4.343583|   -4.602747|   -5.454807|
|         283|   -6.578476|   -4.342401|   -4.597314|   -5.453296|
|         284|   -6.575889|   -4.341042|   -4.591110|   -5.451554|
|         285|   -6.572779|   -4.339516|   -4.584180|   -5.449676|
|         286|   -6.569212|   -4.337843|   -4.576605|   -5.447683|
|         287|   -6.565257|   -4.336034|   -4.568501|   -5.445629|
|         288|   -6.560946|   -4.334099|   -4.559998|   -5.443526|
|         289|   -6.556305|   -4.332061|   -4.551200|   -5.441450|
|         290|   -6.551362|   -4.329944|   -4.542211|   -5.439421|
|         291|   -6.546166|   -4.327773|   -4.533139|   -5.437304|
|         292|   -6.540759|   -4.325565|   -4.524087|   -5.435341|
|         293|   -6.535298|   -4.323344|   -4.515117|   -5.433428|
|         294|   -6.529955|   -4.321132|   -4.506319|   -5.431662|
|         295|   -6.524807|   -4.318937|   -4.497775|   -5.430017|
|         296|   -6.519821|   -4.316758|   -4.489557|   -5.428531|
|         297|   -6.514961|   -4.314619|   -4.481689|   -5.427191|
|         298|   -6.510206|   -4.312526|   -4.474205|   -5.425992|
|         299|   -6.505567|   -4.310504|   -4.467119|   -5.424924|
|         300|   -6.501037|   -4.308547|   -4.460472|   -5.423993|
|         301|   -6.496609|   -4.306672|   -4.454271|   -5.423179|
|         302|   -6.492302|   -4.304877|   -4.448545|   -5.422531|
|         303|   -6.488203|   -4.303177|   -4.443288|   -5.422031|
|         304|   -6.484409|   -4.301573|   -4.438526|   -5.421711|
|         305|   -6.480887|   -4.300070|   -4.434259|   -5.421522|
|         306|   -6.477549|   -4.298676|   -4.430474|   -5.421480|
|         307|   -6.474362|   -4.297406|   -4.427148|   -5.421565|
|         308|   -6.471310|   -4.296280|   -4.424253|   -5.421793|
|         309|   -6.468353|   -4.295303|   -4.421772|   -5.422118|
|         310|   -6.465483|   -4.294491|   -4.419663|   -5.422569|
|         311|   -6.462690|   -4.293850|   -4.417900|   -5.423152|
|         312|   -6.459997|   -4.293387|   -4.416440|   -5.423780|
|         313|   -6.457357|   -4.293103|   -4.415256|   -5.424573|
|         314|   -6.454791|   -4.293000|   -4.414301|   -5.425380|
|         315|   -6.452289|   -4.293084|   -4.413532|   -5.426333|
|         316|   -6.449839|   -4.293340|   -4.412934|   -5.427307|
|         317|   -6.447420|   -4.293782|   -4.412437|   -5.428350|
|         318|   -6.445038|   -4.294380|   -4.412053|   -5.429461|
|         319|   -6.442677|   -4.295146|   -4.411712|   -5.430612|
|         320|   -6.440303|   -4.296053|   -4.411419|   -5.431836|
|         321|   -6.437938|   -4.297082|   -4.411150|   -5.433094|
|         322|   -6.435545|   -4.298226|   -4.410873|   -5.434439|
|         323|   -6.433128|   -4.299442|   -4.410594|   -5.435782|
|         324|   -6.430692|   -4.300730|   -4.410266|   -5.437259|
|         325|   -6.428209|   -4.302048|   -4.409909|   -5.438677|
|         326|   -6.425678|   -4.303373|   -4.409511|   -5.440208|
|         327|   -6.423094|   -4.304693|   -4.409045|   -5.441682|
|         328|   -6.420476|   -4.305976|   -4.408535|   -5.443172|
|         329|   -6.417797|   -4.307216|   -4.407954|   -5.444686|
|         330|   -6.415089|   -4.308407|   -4.407312|   -5.446158|
|         331|   -6.412333|   -4.309532|   -4.406622|   -5.447634|
|         332|   -6.409555|   -4.310611|   -4.405874|   -5.449048|
|         333|   -6.406744|   -4.311641|   -4.405084|   -5.450471|
|         334|   -6.403917|   -4.312623|   -4.404272|   -5.451812|
|         335|   -6.401089|   -4.313591|   -4.403432|   -5.453178|
|         336|   -6.398255|   -4.314539|   -4.402593|   -5.454462|
|         337|   -6.395461|   -4.315491|   -4.401775|   -5.455748|
|         338|   -6.392676|   -4.316462|   -4.400980|   -5.456995|
|         339|   -6.389963|   -4.317456|   -4.400243|   -5.458189|
|         340|   -6.387332|   -4.318495|   -4.399564|   -5.459349|
|         341|   -6.384764|   -4.319583|   -4.398966|   -5.460439|
|         342|   -6.382264|   -4.320722|   -4.398472|   -5.461498|
|         343|   -6.379846|   -4.321923|   -4.398092|   -5.462440|
|         344|   -6.377500|   -4.323184|   -4.397844|   -5.463312|
|         345|   -6.375221|   -4.324508|   -4.397741|   -5.464074|
|         346|   -6.373024|   -4.325902|   -4.397781|   -5.464733|
|         347|   -6.370943|   -4.327361|   -4.397982|   -5.465266|
|         348|   -6.368969|   -4.328887|   -4.398348|   -5.465619|
|         349|   -6.367088|   -4.330482|   -4.398892|   -5.465839|
|         350|   -6.365281|   -4.332151|   -4.399613|   -5.465897|
|         351|   -6.363585|   -4.333888|   -4.400516|   -5.465807|
|         352|   -6.362007|   -4.335697|   -4.401595|   -5.465564|
|         353|   -6.360546|   -4.337567|   -4.402855|   -5.465158|
|         354|   -6.359186|   -4.339499|   -4.404289|   -5.464601|
|         355|   -6.357931|   -4.341489|   -4.405883|   -5.463901|
|         356|   -6.356779|   -4.343525|   -4.407634|   -5.463088|
|         357|   -6.355706|   -4.345602|   -4.409524|   -5.462161|
|         358|   -6.354703|   -4.347713|   -4.411538|   -5.461132|
|         359|   -6.353784|   -4.349844|   -4.413656|   -5.460020|
|         360|   -6.352977|   -4.351989|   -4.415823|   -5.458826|
|         361|   -6.352458|   -4.354106|   -4.418039|   -5.457557|
|         362|   -6.352208|   -4.356190|   -4.420289|   -5.456238|
|         363|   -6.352133|   -4.358247|   -4.422562|   -5.454856|
|         364|   -6.352142|   -4.360289|   -4.424848|   -5.453425|
|         365|   -6.352179|   -4.362330|   -4.427139|   -5.451960|
|         366|   -6.352219|   -4.364371|   -4.429429|   -5.450469|
|         367|   -6.352262|   -4.366413|   -4.431711|   -5.448960|
|         368|   -6.352311|   -4.368455|   -4.433978|   -5.447434|
|         369|   -6.352373|   -4.370496|   -4.436223|   -5.445897|
|         370|   -6.352444|   -4.372541|   -4.438443|   -5.444361|
|         371|   -6.352520|   -4.374587|   -4.440625|   -5.442833|
|         372|   -6.352621|   -4.376635|   -4.442766|   -5.441320|
|         373|   -6.352766|   -4.378678|   -4.444870|   -5.439819|
|         374|   -6.352951|   -4.380712|   -4.446940|   -5.438340|
|         375|   -6.353168|   -4.382737|   -4.448988|   -5.436895|
|         376|   -6.353408|   -4.384748|   -4.451025|   -5.435474|
|         377|   -6.353665|   -4.386741|   -4.453068|   -5.434088|
|         378|   -6.353936|   -4.388713|   -4.455136|   -5.432727|
|         379|   -6.354219|   -4.390656|   -4.457250|   -5.431406|
|         380|   -6.354510|   -4.392570|   -4.459430|   -5.430131|
|         381|   -6.354806|   -4.394450|   -4.461695|   -5.428895|
|         382|   -6.355103|   -4.396296|   -4.464063|   -5.427722|
|         383|   -6.355393|   -4.398110|   -4.466545|   -5.426598|
|         384|   -6.355666|   -4.399895|   -4.469148|   -5.425530|
|         385|   -6.355912|   -4.401652|   -4.471857|   -5.424510|
|         386|   -6.356152|   -4.403379|   -4.474642|   -5.423539|
|         387|   -6.356432|   -4.405060|   -4.477510|   -5.422602|
|         388|   -6.356745|   -4.406696|   -4.480444|   -5.421709|
|         389|   -6.357063|   -4.408291|   -4.483419|   -5.420855|
|         390|   -6.357360|   -4.409847|   -4.486405|   -5.420039|
|         391|   -6.357618|   -4.411362|   -4.489370|   -5.419251|
|         392|   -6.357826|   -4.412827|   -4.492279|   -5.418496|
|         393|   -6.357976|   -4.414232|   -4.495096|   -5.417764|
|         394|   -6.358065|   -4.415561|   -4.497787|   -5.417058|
|         395|   -6.358086|   -4.416799|   -4.500320|   -5.416367|
|         396|   -6.358033|   -4.417928|   -4.502669|   -5.415719|
|         397|   -6.357903|   -4.418927|   -4.504808|   -5.415082|
|         398|   -6.357691|   -4.419777|   -4.506714|   -5.414450|
|         399|   -6.357397|   -4.420457|   -4.508364|   -5.413841|
|         400|   -6.357020|   -4.420947|   -4.509733|   -5.413235|
|         401|   -6.356559|   -4.421230|   -4.510791|   -5.412626|
|         402|   -6.356016|   -4.421289|   -4.511505|   -5.412022|
|         403|   -6.355390|   -4.421107|   -4.511838|   -5.411427|
|         404|   -6.354680|   -4.420668|   -4.511750|   -5.410829|
|         405|   -6.353887|   -4.419956|   -4.511202|   -5.410218|
|         406|   -6.353011|   -4.418952|   -4.510160|   -5.409589|
|         407|   -6.352051|   -4.417638|   -4.508595|   -5.408931|
|         408|   -6.351009|   -4.415992|   -4.506485|   -5.408232|
|         409|   -6.349886|   -4.413998|   -4.503815|   -5.407494|
|         410|   -6.348683|   -4.411639|   -4.500573|   -5.406728|
|         411|   -6.347407|   -4.408901|   -4.496731|   -5.405921|
|         412|   -6.346097|   -4.405773|   -4.492334|   -5.405060|
|         413|   -6.344752|   -4.402249|   -4.487409|   -5.404149|
|         414|   -6.343363|   -4.398332|   -4.481981|   -5.403193|
|         415|   -6.341912|   -4.394033|   -4.476011|   -5.402206|
|         416|   -6.340465|   -4.389366|   -4.469569|   -5.401151|
|         417|   -6.339038|   -4.384343|   -4.462708|   -5.400059|
|         418|   -6.337611|   -4.378988|   -4.455467|   -5.398905|
|         419|   -6.336154|   -4.373329|   -4.447879|   -5.397694|
|         420|   -6.334645|   -4.367402|   -4.439972|   -5.396452|
|         421|   -6.333068|   -4.361241|   -4.431767|   -5.395153|
|         422|   -6.331416|   -4.354877|   -4.423295|   -5.393786|
|         423|   -6.329676|   -4.348339|   -4.414581|   -5.392347|
|         424|   -6.327834|   -4.341656|   -4.405648|   -5.390864|
|         425|   -6.325878|   -4.334858|   -4.396516|   -5.389299|
|         426|   -6.323796|   -4.327973|   -4.387210|   -5.387647|
|         427|   -6.321573|   -4.321023|   -4.377753|   -5.385905|
|         428|   -6.319183|   -4.314022|   -4.368088|   -5.384087|
|         429|   -6.316811|   -4.306999|   -4.358301|   -5.382150|
|         430|   -6.314471|   -4.299936|   -4.348454|   -5.380117|
|         431|   -6.312113|   -4.292835|   -4.338578|   -5.377927|
|         432|   -6.309690|   -4.285711|   -4.328702|   -5.375567|
|         433|   -6.307163|   -4.278577|   -4.318846|   -5.373028|
|         434|   -6.304520|   -4.271439|   -4.309029|   -5.370292|
|         435|   -6.301767|   -4.264302|   -4.299267|   -5.367380|
|         436|   -6.298937|   -4.257171|   -4.289577|   -5.364290|
|         437|   -6.296063|   -4.250055|   -4.279973|   -5.361060|
|         438|   -6.293168|   -4.242971|   -4.270464|   -5.357715|
|         439|   -6.290271|   -4.235941|   -4.261059|   -5.354331|
|         440|   -6.287380|   -4.228992|   -4.251761|   -5.350936|
|         441|   -6.284503|   -4.222160|   -4.242553|   -5.347599|
|         442|   -6.281773|   -4.215476|   -4.233455|   -5.344373|
|         443|   -6.279205|   -4.208958|   -4.224494|   -5.341287|
|         444|   -6.276766|   -4.202630|   -4.215682|   -5.338373|
|         445|   -6.274425|   -4.196524|   -4.207030|   -5.335645|
|         446|   -6.272160|   -4.190667|   -4.198559|   -5.333086|
|         447|   -6.269960|   -4.185080|   -4.190290|   -5.330660|
|         448|   -6.267826|   -4.179771|   -4.182246|   -5.328348|
|         449|   -6.265759|   -4.174749|   -4.174447|   -5.326126|
|         450|   -6.263772|   -4.170013|   -4.166929|   -5.324018|
|         451|   -6.261875|   -4.165568|   -4.159711|   -5.321995|
|         452|   -6.260034|   -4.161415|   -4.152806|   -5.320080|
|         453|   -6.258233|   -4.157556|   -4.146237|   -5.318280|
|         454|   -6.256455|   -4.153988|   -4.140024|   -5.316647|
|         455|   -6.254704|   -4.150707|   -4.134179|   -5.315247|
|         456|   -6.252987|   -4.147708|   -4.128717|   -5.314064|
|         457|   -6.251316|   -4.144984|   -4.123656|   -5.313171|
|         458|   -6.249695|   -4.142524|   -4.119010|   -5.312526|
|         459|   -6.248143|   -4.140331|   -4.114788|   -5.312066|
|         460|   -6.246671|   -4.138401|   -4.111005|   -5.311884|
|         461|   -6.245270|   -4.136732|   -4.107676|   -5.311914|
|         462|   -6.243930|   -4.135324|   -4.104800|   -5.312163|
|         463|   -6.242757|   -4.134182|   -4.102373|   -5.312504|
|         464|   -6.241896|   -4.133285|   -4.100411|   -5.312901|
|         465|   -6.241337|   -4.132616|   -4.098926|   -5.313459|
|         466|   -6.240993|   -4.132175|   -4.097921|   -5.314119|
|         467|   -6.240780|   -4.131972|   -4.097390|   -5.314842|
|         468|   -6.240640|   -4.132014|   -4.097328|   -5.315560|
|         469|   -6.240514|   -4.132294|   -4.097736|   -5.316282|
|         470|   -6.240366|   -4.132805|   -4.098614|   -5.317106|
|         471|   -6.240164|   -4.133541|   -4.099945|   -5.318074|
|         472|   -6.240020|   -4.134484|   -4.101689|   -5.319161|
|         473|   -6.240267|   -4.135587|   -4.103840|   -5.320325|
|         474|   -6.240862|   -4.136827|   -4.106387|   -5.321559|
|         475|   -6.241616|   -4.138215|   -4.109308|   -5.322866|
|         476|   -6.242333|   -4.139768|   -4.112583|   -5.324249|
|         477|   -6.242871|   -4.141503|   -4.116148|   -5.325763|
|         478|   -6.243617|   -4.143353|   -4.119987|   -5.327410|
|         479|   -6.244685|   -4.145275|   -4.124093|   -5.329151|
|         480|   -6.245912|   -4.147276|   -4.128409|   -5.331021|
|         481|   -6.247452|   -4.149327|   -4.132893|   -5.332982|
|         482|   -6.249400|   -4.151401|   -4.137525|   -5.335010|
|         483|   -6.251674|   -4.153492|   -4.142278|   -5.337109|
|         484|   -6.254143|   -4.155601|   -4.147132|   -5.339282|
|         485|   -6.256698|   -4.157724|   -4.152067|   -5.341527|
|         486|   -6.259281|   -4.159847|   -4.157069|   -5.343802|
|         487|   -6.261876|   -4.161949|   -4.162121|   -5.346101|
|         488|   -6.264485|   -4.164008|   -4.167202|   -5.348440|
|         489|   -6.267116|   -4.166002|   -4.172293|   -5.350793|
|         490|   -6.269767|   -4.167910|   -4.177372|   -5.353113|
|         491|   -6.272429|   -4.169715|   -4.182412|   -5.355396|
|         492|   -6.275086|   -4.171401|   -4.187388|   -5.357659|
|         493|   -6.277722|   -4.172952|   -4.192271|   -5.359866|
|         494|   -6.280318|   -4.174353|   -4.197030|   -5.362012|
|         495|   -6.282861|   -4.175587|   -4.201636|   -5.364065|
|         496|   -6.285342|   -4.176638|   -4.206057|   -5.366006|
|         497|   -6.287752|   -4.177490|   -4.210267|   -5.367848|
|         498|   -6.290084|   -4.178128|   -4.214237|   -5.369560|
|         499|   -6.292335|   -4.178538|   -4.217941|   -5.371108|
|         500|   -6.294500|   -4.178710|   -4.221353|   -5.372502|
|         501|   -6.296576|   -4.178635|   -4.224448|   -5.373734|
|         502|   -6.298558|   -4.178309|   -4.227202|   -5.374792|
|         503|   -6.300444|   -4.177727|   -4.229594|   -5.375669|
|         504|   -6.302229|   -4.176886|   -4.231605|   -5.376332|
|         505|   -6.303907|   -4.175787|   -4.233219|   -5.376806|
|         506|   -6.305474|   -4.174430|   -4.234423|   -5.377074|
|         507|   -6.306922|   -4.172820|   -4.235210|   -5.377113|
|         508|   -6.308248|   -4.170962|   -4.235574|   -5.376935|
|         509|   -6.309448|   -4.168866|   -4.235515|   -5.376552|
|         510|   -6.310517|   -4.166542|   -4.235036|   -5.375944|
|         511|   -6.311456|   -4.164003|   -4.234149|   -5.375170|
|         512|   -6.312263|   -4.161264|   -4.232868|   -5.374215|
|         513|   -6.312940|   -4.158342|   -4.231214|   -5.373116|
|         514|   -6.313489|   -4.155256|   -4.229215|   -5.371875|
|         515|   -6.313914|   -4.152029|   -4.226901|   -5.370598|
|         516|   -6.314223|   -4.148683|   -4.224308|   -5.369233|
|         517|   -6.314424|   -4.145242|   -4.221476|   -5.367880|
|         518|   -6.314524|   -4.141731|   -4.218447|   -5.366512|
|         519|   -6.314535|   -4.138173|   -4.215264|   -5.365210|
|         520|   -6.314464|   -4.134593|   -4.211972|   -5.363922|
|         521|   -6.314320|   -4.131012|   -4.208611|   -5.362711|
|         522|   -6.314109|   -4.127451|   -4.205222|   -5.361470|
|         523|   -6.313839|   -4.123927|   -4.201838|   -5.360290|
|         524|   -6.313511|   -4.120456|   -4.198491|   -5.359091|
|         525|   -6.313131|   -4.117051|   -4.195205|   -5.357869|
|         526|   -6.312701|   -4.113720|   -4.192001|   -5.356669|
|         527|   -6.312221|   -4.110470|   -4.188893|   -5.355374|
|         528|   -6.311694|   -4.107309|   -4.185888|   -5.354107|
|         529|   -6.311119|   -4.104238|   -4.182991|   -5.352757|
|         530|   -6.310501|   -4.101261|   -4.180198|   -5.351375|
|         531|   -6.309840|   -4.098378|   -4.177506|   -5.350040|
|         532|   -6.309140|   -4.095591|   -4.174905|   -5.348631|
|         533|   -6.308405|   -4.092901|   -4.172382|   -5.347233|
|         534|   -6.307636|   -4.090308|   -4.169921|   -5.345900|
|         535|   -6.306841|   -4.087813|   -4.167504|   -5.344559|
|         536|   -6.306019|   -4.085414|   -4.165111|   -5.343248|
|         537|   -6.305176|   -4.083111|   -4.162723|   -5.342055|
|         538|   -6.304315|   -4.080899|   -4.160318|   -5.340862|
|         539|   -6.303440|   -4.078776|   -4.157880|   -5.339740|
|         540|   -6.302554|   -4.076734|   -4.155390|   -5.338697|
|         541|   -6.301663|   -4.074768|   -4.152834|   -5.337687|
|         542|   -6.300768|   -4.072871|   -4.150198|   -5.336686|
|         543|   -6.299876|   -4.071032|   -4.147472|   -5.335764|
|         544|   -6.298989|   -4.069243|   -4.144650|   -5.334849|
|         545|   -6.298113|   -4.067492|   -4.141727|   -5.333907|
|         546|   -6.297250|   -4.065768|   -4.138702|   -5.333025|
|         547|   -6.296406|   -4.064060|   -4.135575|   -5.332140|
|         548|   -6.295585|   -4.062360|   -4.132345|   -5.331177|
|         549|   -6.294788|   -4.060658|   -4.129015|   -5.330228|
|         550|   -6.294019|   -4.058945|   -4.125587|   -5.329269|
|         551|   -6.293279|   -4.057213|   -4.122066|   -5.328229|
|         552|   -6.292569|   -4.055455|   -4.118456|   -5.327164|
|         553|   -6.291891|   -4.053666|   -4.114760|   -5.326047|
|         554|   -6.291244|   -4.051840|   -4.110983|   -5.324867|
|         555|   -6.290632|   -4.049976|   -4.107129|   -5.323602|
|         556|   -6.290053|   -4.048071|   -4.103203|   -5.322271|
|         557|   -6.289510|   -4.046125|   -4.099209|   -5.320882|
|         558|   -6.289004|   -4.044141|   -4.095154|   -5.319405|
|         559|   -6.288534|   -4.042121|   -4.091045|   -5.317871|
|         560|   -6.288103|   -4.040068|   -4.086890|   -5.316300|
|         561|   -6.287711|   -4.037990|   -4.082697|   -5.314668|
|         562|   -6.287361|   -4.035892|   -4.078474|   -5.313003|
|         563|   -6.287051|   -4.033785|   -4.074231|   -5.311318|
|         564|   -6.286785|   -4.031677|   -4.069978|   -5.309619|
|         565|   -6.286560|   -4.029578|   -4.065724|   -5.307939|
|         566|   -6.286380|   -4.027500|   -4.061484|   -5.306277|
|         567|   -6.286245|   -4.025449|   -4.057271|   -5.304648|
|         568|   -6.286153|   -4.023431|   -4.053099|   -5.303044|
|         569|   -6.286105|   -4.021454|   -4.048983|   -5.301482|
|         570|   -6.286099|   -4.019522|   -4.044937|   -5.299955|
|         571|   -6.286136|   -4.017644|   -4.040975|   -5.298450|
|         572|   -6.286218|   -4.015827|   -4.037112|   -5.296961|
|         573|   -6.286342|   -4.014076|   -4.033361|   -5.295459|
|         574|   -6.286509|   -4.012391|   -4.029737|   -5.293986|
|         575|   -6.286717|   -4.010762|   -4.026252|   -5.292500|
|         576|   -6.286968|   -4.009176|   -4.022917|   -5.290965|
|         577|   -6.287263|   -4.007617|   -4.019742|   -5.289451|
|         578|   -6.287605|   -4.006072|   -4.016736|   -5.287929|
|         579|   -6.287997|   -4.004535|   -4.013910|   -5.286358|
|         580|   -6.288443|   -4.003001|   -4.011269|   -5.284756|
|         581|   -6.288945|   -4.001466|   -4.008818|   -5.283129|
|         582|   -6.289503|   -3.999920|   -4.006560|   -5.281462|
|         583|   -6.290118|   -3.998352|   -4.004493|   -5.279769|
|         584|   -6.290789|   -3.996750|   -4.002613|   -5.278050|
|         585|   -6.291515|   -3.995105|   -4.000915|   -5.276273|
|         586|   -6.292298|   -3.993411|   -3.999387|   -5.274489|
|         587|   -6.293134|   -3.991664|   -3.998018|   -5.272696|
|         588|   -6.294024|   -3.989864|   -3.996791|   -5.270868|
|         589|   -6.294965|   -3.988014|   -3.995690|   -5.269079|
|         590|   -6.295954|   -3.986120|   -3.994700|   -5.267275|
|         591|   -6.296989|   -3.984189|   -3.993800|   -5.265493|
|         592|   -6.298069|   -3.982228|   -3.992976|   -5.263754|
|         593|   -6.299188|   -3.980242|   -3.992215|   -5.262009|
|         594|   -6.300339|   -3.978235|   -3.991505|   -5.260332|
|         595|   -6.301518|   -3.976213|   -3.990835|   -5.258659|
|         596|   -6.302722|   -3.974180|   -3.990193|   -5.257053|
|         597|   -6.303948|   -3.972141|   -3.989568|   -5.255472|
|         598|   -6.305197|   -3.970102|   -3.988952|   -5.253963|
|         599|   -6.306469|   -3.968066|   -3.988335|   -5.252506|
|         600|   -6.307763|   -3.966035|   -3.987710|   -5.251102|
|         601|   -6.309076|   -3.964011|   -3.987070|   -5.249802|
|         602|   -6.310404|   -3.961992|   -3.986413|   -5.248518|
|         603|   -6.311745|   -3.959978|   -3.985735|   -5.247339|
|         604|   -6.313096|   -3.957970|   -3.985039|   -5.246167|
|         605|   -6.314458|   -3.955966|   -3.984326|   -5.245122|
|         606|   -6.315833|   -3.953963|   -3.983601|   -5.244034|
|         607|   -6.317220|   -3.951959|   -3.982872|   -5.243080|
|         608|   -6.318620|   -3.949951|   -3.982145|   -5.242193|
|         609|   -6.320033|   -3.947934|   -3.981427|   -5.241437|
|         610|   -6.321458|   -3.945907|   -3.980726|   -5.240700|
|         611|   -6.322898|   -3.943866|   -3.980047|   -5.240033|
|         612|   -6.324355|   -3.941812|   -3.979396|   -5.239394|
|         613|   -6.325834|   -3.939743|   -3.978777|   -5.238788|
|         614|   -6.327334|   -3.937659|   -3.978195|   -5.238263|
|         615|   -6.328853|   -3.935554|   -3.977654|   -5.237820|
|         616|   -6.330389|   -3.933425|   -3.977158|   -5.237413|
|         617|   -6.331940|   -3.931264|   -3.976711|   -5.237056|
|         618|   -6.333504|   -3.929066|   -3.976310|   -5.236696|
|         619|   -6.335076|   -3.926826|   -3.975952|   -5.236352|
|         620|   -6.336653|   -3.924535|   -3.975633|   -5.236057|
|         621|   -6.338233|   -3.922189|   -3.975347|   -5.235782|
|         622|   -6.339809|   -3.919782|   -3.975083|   -5.235474|
|         623|   -6.341371|   -3.917309|   -3.974832|   -5.235165|
|         624|   -6.342906|   -3.914767|   -3.974579|   -5.234844|
|         625|   -6.344399|   -3.912153|   -3.974313|   -5.234497|
|         626|   -6.345825|   -3.909471|   -3.974015|   -5.234146|
|         627|   -6.347158|   -3.906723|   -3.973676|   -5.233749|
|         628|   -6.348370|   -3.903917|   -3.973285|   -5.233291|
|         629|   -6.349423|   -3.901062|   -3.972836|   -5.232842|
|         630|   -6.350286|   -3.898178|   -3.972324|   -5.232418|
|         631|   -6.350925|   -3.895290|   -3.971750|   -5.231978|
|         632|   -6.351304|   -3.892424|   -3.971125|   -5.231518|
|         633|   -6.351412|   -3.889611|   -3.970468|   -5.231113|
|         634|   -6.351252|   -3.886889|   -3.969814|   -5.230770|
|         635|   -6.350831|   -3.884296|   -3.969203|   -5.230452|
|         636|   -6.350182|   -3.881870|   -3.968680|   -5.230206|
|         637|   -6.349370|   -3.879647|   -3.968303|   -5.230062|
|         638|   -6.348515|   -3.877663|   -3.968130|   -5.229997|
|         639|   -6.347756|   -3.875952|   -3.968207|   -5.230039|
|         640|   -6.347228|   -3.874545|   -3.968565|   -5.230194|
|         641|   -6.347066|   -3.873460|   -3.969217|   -5.230433|
|         642|   -6.347434|   -3.872708|   -3.970161|   -5.230766|
|         643|   -6.348457|   -3.872294|   -3.971368|   -5.231182|
|         644|   -6.350195|   -3.872212|   -3.972790|   -5.231638|
|         645|   -6.352624|   -3.872441|   -3.974379|   -5.232181|
|         646|   -6.355716|   -3.872944|   -3.976094|   -5.232717|
|         647|   -6.359409|   -3.873687|   -3.977896|   -5.233269|
|         648|   -6.363581|   -3.874636|   -3.979733|   -5.233825|
|         649|   -6.368038|   -3.875770|   -3.981533|   -5.234395|
|         650|   -6.372598|   -3.877096|   -3.983180|   -5.234974|
|         651|   -6.377039|   -3.878642|   -3.984490|   -5.235523|
|         652|   -6.381025|   -3.880442|   -3.985220|   -5.236057|
|         653|   -6.384165|   -3.882503|   -3.985127|   -5.236496|
|         654|   -6.386126|   -3.884794|   -3.984026|   -5.236830|
|         655|   -6.386685|   -3.887207|   -3.981853|   -5.237038|
|         656|   -6.385816|   -3.889561|   -3.978694|   -5.237076|
|         657|   -6.383703|   -3.891626|   -3.974758|   -5.236901|
|         658|   -6.380693|   -3.893172|   -3.970301|   -5.236591|
|         659|   -6.377175|   -3.894025|   -3.965554|   -5.236071|
|         660|   -6.373471|   -3.894103|   -3.960655|   -5.235464|
|         661|   -6.369707|   -3.893430|   -3.955562|   -5.234788|
|         662|   -6.367251|   -3.892115|   -3.950243|   -5.234089|
|         663|   -6.366444|   -3.890254|   -3.944696|   -5.233312|
|         664|   -6.366520|   -3.887964|   -3.938877|   -5.232460|
|         665|   -6.366627|   -3.885365|   -3.932750|   -5.231508|
|         666|   -6.366400|   -3.882545|   -3.926335|   -5.230508|
|         667|   -6.365866|   -3.879566|   -3.919704|   -5.229412|
|         668|   -6.365132|   -3.876468|   -3.912961|   -5.228227|
|         669|   -6.364249|   -3.873292|   -3.906222|   -5.226890|
|         670|   -6.363251|   -3.870086|   -3.899595|   -5.225494|
|         671|   -6.362183|   -3.866910|   -3.893181|   -5.223980|
|         672|   -6.361104|   -3.863833|   -3.887065|   -5.222365|
|         673|   -6.360059|   -3.860923|   -3.881320|   -5.220633|
|         674|   -6.359093|   -3.858240|   -3.876004|   -5.218795|
|         675|   -6.358247|   -3.855832|   -3.871171|   -5.216903|
|         676|   -6.357555|   -3.853730|   -3.866866|   -5.214987|
|         677|   -6.357043|   -3.851950|   -3.863126|   -5.213099|
|         678|   -6.356722|   -3.850494|   -3.859977|   -5.211206|
|         679|   -6.356612|   -3.849353|   -3.857436|   -5.209304|
|         680|   -6.356863|   -3.848513|   -3.855494|   -5.207485|
|         681|   -6.357575|   -3.847955|   -3.854137|   -5.205781|
|         682|   -6.358576|   -3.847650|   -3.853343|   -5.204092|
|         683|   -6.360089|   -3.847582|   -3.853040|   -5.202444|
|         684|   -6.361949|   -3.847721|   -3.853176|   -5.200850|
|         685|   -6.364249|   -3.848049|   -3.853656|   -5.199259|
|         686|   -6.366828|   -3.848537|   -3.854398|   -5.197673|
|         687|   -6.369597|   -3.849160|   -3.855304|   -5.196069|
|         688|   -6.372526|   -3.849894|   -3.856274|   -5.194431|
|         689|   -6.375409|   -3.850708|   -3.857226|   -5.192795|
|         690|   -6.378712|   -3.851590|   -3.858043|   -5.191220|
|         691|   -6.383070|   -3.852508|   -3.858646|   -5.189658|
|         692|   -6.387744|   -3.853393|   -3.859051|   -5.188056|
|         693|   -6.392151|   -3.854214|   -3.859223|   -5.186376|
|         694|   -6.396167|   -3.854950|   -3.859127|   -5.184673|
|         695|   -6.399839|   -3.855581|   -3.858755|   -5.182954|
|         696|   -6.403169|   -3.856092|   -3.858122|   -5.181255|
|         697|   -6.406132|   -3.856462|   -3.857255|   -5.179560|
|         698|   -6.408754|   -3.856677|   -3.856179|   -5.177873|
|         699|   -6.411074|   -3.856731|   -3.854918|   -5.176204|
|         700|   -6.413126|   -3.856623|   -3.853509|   -5.174544|
|         701|   -6.414946|   -3.856368|   -3.851977|   -5.172939|
|         702|   -6.416553|   -3.855991|   -3.850347|   -5.171453|
|         703|   -6.417963|   -3.855522|   -3.848640|   -5.170048|
|         704|   -6.419199|   -3.854991|   -3.846878|   -5.168721|
|         705|   -6.420277|   -3.854430|   -3.845085|   -5.167424|
|         706|   -6.421207|   -3.853877|   -3.843269|   -5.166247|
|         707|   -6.421974|   -3.853360|   -3.841433|   -5.165143|
|         708|   -6.422583|   -3.852897|   -3.839579|   -5.164178|
|         709|   -6.423318|   -3.852507|   -3.837709|   -5.163247|
|         710|   -6.424060|   -3.852190|   -3.835846|   -5.162402|
|         711|   -6.424635|   -3.851944|   -3.833991|   -5.161655|
|         712|   -6.424924|   -3.851761|   -3.832144|   -5.160949|
|         713|   -6.424883|   -3.851619|   -3.830313|   -5.160287|
|         714|   -6.424538|   -3.851493|   -3.828505|   -5.159597|
|         715|   -6.423887|   -3.851348|   -3.826732|   -5.158959|
|         716|   -6.422948|   -3.851140|   -3.825016|   -5.158343|
|         717|   -6.421766|   -3.850830|   -3.823383|   -5.157721|
|         718|   -6.420424|   -3.850393|   -3.821853|   -5.157201|
|         719|   -6.418995|   -3.849810|   -3.820445|   -5.156779|
|         720|   -6.417843|   -3.849076|   -3.819187|   -5.156443|
|         721|   -6.417074|   -3.848181|   -3.818119|   -5.156051|
|         722|   -6.416593|   -3.847129|   -3.817270|   -5.155721|
|         723|   -6.416287|   -3.845936|   -3.816655|   -5.155361|
|         724|   -6.416184|   -3.844620|   -3.816293|   -5.155037|
|         725|   -6.416180|   -3.843203|   -3.816196|   -5.154758|
|         726|   -6.416240|   -3.841717|   -3.816374|   -5.154615|
|         727|   -6.416323|   -3.840194|   -3.816833|   -5.154540|
|         728|   -6.416418|   -3.838681|   -3.817563|   -5.154575|
|         729|   -6.416555|   -3.837223|   -3.818547|   -5.154689|
|         730|   -6.416680|   -3.835872|   -3.819761|   -5.154927|
|         731|   -6.416792|   -3.834671|   -3.821157|   -5.155243|
|         732|   -6.416910|   -3.833658|   -3.822678|   -5.155664|
|         733|   -6.417066|   -3.832842|   -3.824263|   -5.156149|
|         734|   -6.417283|   -3.832224|   -3.825842|   -5.156786|
|         735|   -6.417608|   -3.831785|   -3.827334|   -5.157545|
|         736|   -6.418095|   -3.831480|   -3.828668|   -5.158255|
|         737|   -6.418626|   -3.831253|   -3.829775|   -5.159015|
|         738|   -6.419110|   -3.831036|   -3.830597|   -5.159809|
|         739|   -6.419407|   -3.830754|   -3.831100|   -5.160453|
|         740|   -6.419388|   -3.830327|   -3.831264|   -5.161079|
|         741|   -6.418978|   -3.829680|   -3.831086|   -5.161706|
|         742|   -6.418147|   -3.828745|   -3.830571|   -5.162186|
|         743|   -6.416902|   -3.827471|   -3.829729|   -5.162738|
|         744|   -6.415239|   -3.825822|   -3.828570|   -5.163322|
|         745|   -6.413175|   -3.823795|   -3.827100|   -5.163777|
|         746|   -6.410674|   -3.821411|   -3.825325|   -5.164317|
|         747|   -6.407712|   -3.818717|   -3.823248|   -5.164887|
|         748|   -6.404485|   -3.815784|   -3.820873|   -5.165341|
|         749|   -6.401015|   -3.812689|   -3.818221|   -5.165790|
|         750|   -6.397198|   -3.809514|   -3.815313|   -5.166287|
|         751|   -6.392894|   -3.806340|   -3.812175|   -5.166743|
|         752|   -6.388010|   -3.803239|   -3.808845|   -5.167111|
|         753|   -6.382553|   -3.800267|   -3.805383|   -5.167448|
|         754|   -6.376531|   -3.797464|   -3.801864|   -5.167843|
|         755|   -6.370018|   -3.794855|   -3.798373|   -5.168281|
|         756|   -6.363175|   -3.792448|   -3.795005|   -5.168733|
|         757|   -6.356355|   -3.790237|   -3.791868|   -5.169183|
|         758|   -6.349827|   -3.788203|   -3.789078|   -5.169607|
|         759|   -6.343724|   -3.786325|   -3.786725|   -5.170000|
|         760|   -6.338509|   -3.784590|   -3.784904|   -5.170415|
|         761|   -6.334342|   -3.782994|   -3.783675|   -5.170757|
|         762|   -6.331188|   -3.781554|   -3.783050|   -5.171145|
|         763|   -6.328973|   -3.780302|   -3.783007|   -5.171492|
|         764|   -6.327647|   -3.779279|   -3.783502|   -5.171852|
|         765|   -6.327120|   -3.778528|   -3.784468|   -5.172175|
|         766|   -6.327348|   -3.778080|   -3.785841|   -5.172525|
|         767|   -6.328182|   -3.777966|   -3.787539|   -5.172898|
|         768|   -6.329556|   -3.778218|   -3.789487|   -5.173396|
|         769|   -6.331377|   -3.778847|   -3.791625|   -5.173868|
|         770|   -6.333547|   -3.779849|   -3.793910|   -5.174445|
|         771|   -6.335968|   -3.781194|   -3.796318|   -5.175072|
|         772|   -6.338618|   -3.782850|   -3.798842|   -5.175776|
|         773|   -6.341505|   -3.784782|   -3.801480|   -5.176679|
|         774|   -6.344628|   -3.786956|   -3.804246|   -5.177594|
|         775|   -6.347991|   -3.789335|   -3.807165|   -5.178568|
|         776|   -6.351661|   -3.791889|   -3.810265|   -5.179650|
|         777|   -6.355642|   -3.794600|   -3.813564|   -5.180824|
|         778|   -6.359995|   -3.797452|   -3.817073|   -5.182103|
|         779|   -6.364706|   -3.800435|   -3.820784|   -5.183440|
|         780|   -6.369723|   -3.803551|   -3.824655|   -5.184885|
|         781|   -6.374940|   -3.806796|   -3.828614|   -5.186399|
|         782|   -6.380260|   -3.810157|   -3.832562|   -5.187923|
|         783|   -6.385536|   -3.813607|   -3.836395|   -5.189465|
|         784|   -6.390615|   -3.817105|   -3.840010|   -5.191085|
|         785|   -6.395395|   -3.820594|   -3.843331|   -5.192774|
|         786|   -6.399841|   -3.823998|   -3.846332|   -5.194647|
|         787|   -6.403935|   -3.827239|   -3.849045|   -5.196442|
|         788|   -6.407748|   -3.830255|   -3.851543|   -5.198263|
|         789|   -6.411383|   -3.832998|   -3.853928|   -5.200133|
|         790|   -6.415016|   -3.835446|   -3.856306|   -5.201875|
|         791|   -6.418817|   -3.837600|   -3.858772|   -5.203639|
|         792|   -6.422999|   -3.839499|   -3.861375|   -5.205130|
|         793|   -6.427685|   -3.841228|   -3.864119|   -5.206592|
|         794|   -6.432942|   -3.842893|   -3.866946|   -5.207948|
|         795|   -6.438680|   -3.844617|   -3.869743|   -5.209212|
|         796|   -6.444675|   -3.846501|   -3.872357|   -5.210333|
|         797|   -6.450563|   -3.848599|   -3.874607|   -5.211340|
|         798|   -6.456078|   -3.850890|   -3.876346|   -5.212120|
|         799|   -6.460464|   -3.853268|   -3.877516|   -5.212686|
|         800|   -6.463238|   -3.855567|   -3.878120|   -5.213046|
|         801|   -6.464320|   -3.857573|   -3.878263|   -5.213246|
|         802|   -6.463993|   -3.859082|   -3.878114|   -5.213311|
|         803|   -6.462719|   -3.859936|   -3.877871|   -5.213346|
|         804|   -6.460975|   -3.860061|   -3.877713|   -5.213279|
|         805|   -6.459170|   -3.859469|   -3.877778|   -5.213210|
|         806|   -6.457582|   -3.858261|   -3.878154|   -5.213161|
|         807|   -6.456338|   -3.856600|   -3.878875|   -5.213148|
|         808|   -6.455453|   -3.854686|   -3.879935|   -5.213268|
|         809|   -6.454836|   -3.852718|   -3.881301|   -5.213499|
|         810|   -6.454356|   -3.850873|   -3.882927|   -5.213848|
|         811|   -6.453852|   -3.849288|   -3.884770|   -5.214332|
|         812|   -6.453244|   -3.848051|   -3.886790|   -5.214908|
|         813|   -6.452502|   -3.847200|   -3.888958|   -5.215604|
|         814|   -6.451650|   -3.846729|   -3.891261|   -5.216407|
|         815|   -6.450832|   -3.846593|   -3.893705|   -5.217279|
|         816|   -6.450203|   -3.846714|   -3.896312|   -5.218210|
|         817|   -6.449908|   -3.847008|   -3.899092|   -5.219129|
|         818|   -6.450180|   -3.847379|   -3.902064|   -5.220006|
|         819|   -6.451114|   -3.847739|   -3.905230|   -5.220802|
|         820|   -6.452794|   -3.848007|   -3.908570|   -5.221459|
|         821|   -6.455272|   -3.848110|   -3.912047|   -5.221988|
|         822|   -6.458469|   -3.847987|   -3.915596|   -5.222322|
|         823|   -6.462269|   -3.847598|   -3.919118|   -5.222460|
|         824|   -6.466585|   -3.846912|   -3.922499|   -5.222396|
|         825|   -6.471243|   -3.845917|   -3.925613|   -5.222083|
|         826|   -6.476057|   -3.844612|   -3.928328|   -5.221495|
|         827|   -6.480878|   -3.843009|   -3.930519|   -5.220709|
|         828|   -6.485601|   -3.841124|   -3.932070|   -5.219673|
|         829|   -6.490127|   -3.838978|   -3.932876|   -5.218472|
|         830|   -6.494231|   -3.836594|   -3.932850|   -5.217092|
|         831|   -6.497603|   -3.833987|   -3.931925|   -5.215525|
|         832|   -6.499883|   -3.831170|   -3.930069|   -5.213888|
|         833|   -6.500793|   -3.828150|   -3.927285|   -5.212094|
|         834|   -6.500150|   -3.824934|   -3.923617|   -5.210234|
|         835|   -6.497941|   -3.821535|   -3.919153|   -5.208323|
|         836|   -6.494261|   -3.817971|   -3.914015|   -5.206349|
|         837|   -6.489295|   -3.814265|   -3.908346|   -5.204438|
|         838|   -6.483308|   -3.810452|   -3.902295|   -5.202476|
|         839|   -6.476575|   -3.806571|   -3.896001|   -5.200589|
|         840|   -6.469363|   -3.802667|   -3.889585|   -5.198741|
|         841|   -6.461908|   -3.798786|   -3.883148|   -5.196931|
|         842|   -6.454384|   -3.794967|   -3.876765|   -5.195244|
|         843|   -6.446890|   -3.791243|   -3.870483|   -5.193591|
|         844|   -6.439469|   -3.787638|   -3.864327|   -5.192052|
|         845|   -6.432132|   -3.784165|   -3.858296|   -5.190605|
|         846|   -6.424875|   -3.780827|   -3.852376|   -5.189243|
|         847|   -6.417708|   -3.777617|   -3.846534|   -5.188011|
|         848|   -6.410610|   -3.774524|   -3.840727|   -5.186849|
|         849|   -6.403596|   -3.771535|   -3.834900|   -5.185824|
|         850|   -6.396641|   -3.768634|   -3.828998|   -5.184876|
|         851|   -6.389781|   -3.765805|   -3.822968|   -5.184036|
|         852|   -6.383052|   -3.763041|   -3.816763|   -5.183323|
|         853|   -6.376447|   -3.760342|   -3.810346|   -5.182642|
|         854|   -6.369986|   -3.757710|   -3.803699|   -5.182026|
|         855|   -6.363694|   -3.755170|   -3.796805|   -5.181521|
|         856|   -6.357565|   -3.752757|   -3.789669|   -5.181099|
|         857|   -6.351614|   -3.750509|   -3.782321|   -5.180807|
|         858|   -6.345851|   -3.748478|   -3.774799|   -5.180495|
|         859|   -6.340335|   -3.746711|   -3.767172|   -5.180296|
|         860|   -6.335066|   -3.745256|   -3.759517|   -5.180060|
|         861|   -6.330049|   -3.744143|   -3.751933|   -5.179858|
|         862|   -6.325302|   -3.743390|   -3.744516|   -5.179703|
|         863|   -6.320838|   -3.742999|   -3.737359|   -5.179478|
|         864|   -6.316634|   -3.742954|   -3.730550|   -5.179250|
|         865|   -6.312730|   -3.743235|   -3.724159|   -5.179067|
|         866|   -6.309160|   -3.743817|   -3.718227|   -5.178963|
|         867|   -6.305926|   -3.744676|   -3.712792|   -5.178864|
|         868|   -6.303004|   -3.745785|   -3.707860|   -5.178817|
|         869|   -6.300374|   -3.747109|   -3.703420|   -5.178864|
|         870|   -6.297947|   -3.748608|   -3.699455|   -5.178905|
|         871|   -6.295704|   -3.750249|   -3.695942|   -5.179018|
|         872|   -6.293611|   -3.752010|   -3.692841|   -5.179285|
|         873|   -6.291617|   -3.753874|   -3.690123|   -5.179450|
|         874|   -6.289699|   -3.755819|   -3.687753|   -5.179745|
|         875|   -6.287834|   -3.757825|   -3.685697|   -5.180233|
|         876|   -6.286014|   -3.759868|   -3.683939|   -5.180635|
|         877|   -6.284207|   -3.761927|   -3.682467|   -5.181117|
|         878|   -6.282383|   -3.763982|   -3.681280|   -5.181735|
|         879|   -6.280524|   -3.766011|   -3.680383|   -5.182403|
|         880|   -6.278614|   -3.767994|   -3.679785|   -5.183105|
|         881|   -6.276644|   -3.769909|   -3.679495|   -5.183870|
|         882|   -6.274597|   -3.771737|   -3.679518|   -5.184773|
|         883|   -6.272461|   -3.773458|   -3.679844|   -5.185698|
|         884|   -6.270228|   -3.775052|   -3.680455|   -5.186667|
|         885|   -6.267919|   -3.776507|   -3.681318|   -5.187746|
|         886|   -6.265594|   -3.777818|   -3.682401|   -5.188895|
|         887|   -6.263307|   -3.778993|   -3.683681|   -5.190035|
|         888|   -6.261085|   -3.780048|   -3.685147|   -5.191358|
|         889|   -6.258946|   -3.781002|   -3.686798|   -5.192760|
|         890|   -6.256877|   -3.781866|   -3.688634|   -5.194192|
|         891|   -6.254887|   -3.782644|   -3.690649|   -5.195748|
|         892|   -6.253000|   -3.783342|   -3.692836|   -5.197360|
|         893|   -6.251251|   -3.783975|   -3.695191|   -5.199046|
|         894|   -6.249664|   -3.784565|   -3.697717|   -5.200796|
|         895|   -6.248243|   -3.785134|   -3.700418|   -5.202638|
|         896|   -6.246960|   -3.785700|   -3.703296|   -5.204548|
|         897|   -6.245764|   -3.786269|   -3.706338|   -5.206506|
|         898|   -6.244605|   -3.786846|   -3.709522|   -5.208497|
|         899|   -6.243444|   -3.787430|   -3.712813|   -5.210549|
|         900|   -6.242238|   -3.788016|   -3.716179|   -5.212617|
|         901|   -6.240961|   -3.788602|   -3.719592|   -5.214659|
|         902|   -6.239608|   -3.789188|   -3.723033|   -5.216690|
|         903|   -6.238202|   -3.789775|   -3.726493|   -5.218648|
|         904|   -6.236778|   -3.790369|   -3.729968|   -5.220555|
|         905|   -6.235363|   -3.790974|   -3.733454|   -5.222389|
|         906|   -6.234006|   -3.791586|   -3.736947|   -5.224171|
|         907|   -6.232746|   -3.792198|   -3.740437|   -5.225857|
|         908|   -6.231590|   -3.792803|   -3.743909|   -5.227445|
|         909|   -6.230523|   -3.793408|   -3.747342|   -5.228881|
|         910|   -6.229519|   -3.794020|   -3.750711|   -5.230218|
|         911|   -6.228551|   -3.794653|   -3.753997|   -5.231425|
|         912|   -6.227603|   -3.795318|   -3.757184|   -5.232460|
|         913|   -6.226721|   -3.796018|   -3.760242|   -5.233421|
|         914|   -6.226601|   -3.796731|   -3.763144|   -5.234207|
|         915|   -6.227218|   -3.797454|   -3.765886|   -5.234854|
|         916|   -6.228219|   -3.798207|   -3.768459|   -5.235391|
|         917|   -6.229245|   -3.799015|   -3.770868|   -5.235830|
|         918|   -6.230100|   -3.799896|   -3.773128|   -5.236165|
|         919|   -6.230700|   -3.800856|   -3.775257|   -5.236453|
|         920|   -6.231018|   -3.801897|   -3.777267|   -5.236674|
|         921|   -6.231043|   -3.803018|   -3.779162|   -5.236836|
|         922|   -6.230801|   -3.804221|   -3.780939|   -5.236940|
|         923|   -6.230328|   -3.805506|   -3.782599|   -5.236997|
|         924|   -6.229678|   -3.806873|   -3.784151|   -5.237096|
|         925|   -6.228890|   -3.808315|   -3.785617|   -5.237231|
|         926|   -6.228056|   -3.809815|   -3.787031|   -5.237434|
|         927|   -6.227193|   -3.811356|   -3.788424|   -5.237708|
|         928|   -6.226261|   -3.812932|   -3.789816|   -5.238030|
|         929|   -6.225208|   -3.814542|   -3.791209|   -5.238397|
|         930|   -6.224011|   -3.816180|   -3.792590|   -5.238790|
|         931|   -6.222706|   -3.817835|   -3.793953|   -5.239196|
|         932|   -6.221281|   -3.819490|   -3.795297|   -5.239605|
|         933|   -6.219734|   -3.821128|   -3.796616|   -5.239988|
|         934|   -6.218406|   -3.822719|   -3.797892|   -5.240386|
|         935|   -6.217963|   -3.824218|   -3.799124|   -5.240651|
|         936|   -6.218358|   -3.825595|   -3.800338|   -5.240778|
|         937|   -6.219221|   -3.826834|   -3.801529|   -5.240807|
|         938|   -6.220560|   -3.827927|   -3.802685|   -5.240657|
|         939|   -6.222186|   -3.828865|   -3.803818|   -5.240348|
|         940|   -6.223789|   -3.829657|   -3.804924|   -5.239882|
|         941|   -6.225108|   -3.830325|   -3.805990|   -5.239277|
|         942|   -6.225983|   -3.830889|   -3.807009|   -5.238542|
|         943|   -6.226321|   -3.831368|   -3.807972|   -5.237703|
|         944|   -6.226208|   -3.831777|   -3.808856|   -5.236773|
|         945|   -6.226164|   -3.832122|   -3.809649|   -5.235688|
|         946|   -6.226260|   -3.832408|   -3.810367|   -5.234455|
|         947|   -6.226361|   -3.832658|   -3.811013|   -5.233048|
|         948|   -6.226261|   -3.832902|   -3.811600|   -5.231502|
|         949|   -6.225788|   -3.833171|   -3.812143|   -5.229818|
|         950|   -6.225047|   -3.833490|   -3.812644|   -5.228059|
|         951|   -6.224522|   -3.833871|   -3.813134|   -5.226214|
|         952|   -6.224280|   -3.834318|   -3.813656|   -5.224280|
|         953|   -6.224172|   -3.834850|   -3.814236|   -5.222285|
|         954|   -6.223948|   -3.835491|   -3.814904|   -5.220303|
|         955|   -6.223409|   -3.836263|   -3.815681|   -5.218373|
|         956|   -6.222690|   -3.837177|   -3.816582|   -5.216592|
|         957|   -6.222245|   -3.838220|   -3.817646|   -5.214887|
|         958|   -6.222070|   -3.839374|   -3.818913|   -5.213385|
|         959|   -6.221965|   -3.840635|   -3.820398|   -5.212085|
|         960|   -6.221739|   -3.842010|   -3.822112|   -5.211025|
|         961|   -6.221285|   -3.843499|   -3.824075|   -5.210250|
|         962|   -6.220590|   -3.845090|   -3.826289|   -5.209776|
|         963|   -6.220022|   -3.846755|   -3.828766|   -5.209578|
|         964|   -6.219704|   -3.848467|   -3.831513|   -5.209632|
|         965|   -6.219576|   -3.850215|   -3.834516|   -5.209925|
|         966|   -6.219508|   -3.851999|   -3.837746|   -5.210543|
|         967|   -6.219398|   -3.853817|   -3.841178|   -5.211395|
|         968|   -6.219220|   -3.855655|   -3.844786|   -5.212524|
|         969|   -6.219013|   -3.857497|   -3.848540|   -5.213901|
|         970|   -6.218845|   -3.859323|   -3.852404|   -5.215512|
|         971|   -6.218760|   -3.861116|   -3.856340|   -5.217417|
|         972|   -6.218775|   -3.862861|   -3.860310|   -5.219487|
|         973|   -6.218894|   -3.864543|   -3.864276|   -5.221737|
|         974|   -6.219107|   -3.866144|   -3.868193|   -5.224189|
|         975|   -6.219562|   -3.867639|   -3.872035|   -5.226823|
|         976|   -6.220247|   -3.869002|   -3.875773|   -5.229536|
|         977|   -6.221100|   -3.870216|   -3.879379|   -5.232408|
|         978|   -6.222026|   -3.871268|   -3.882829|   -5.235355|
|         979|   -6.222934|   -3.872146|   -3.886104|   -5.238331|
|         980|   -6.223784|   -3.872849|   -3.889190|   -5.241398|
|         981|   -6.224555|   -3.873376|   -3.892074|   -5.244509|
[...]
|        4176|    2.083150|    4.610359|    4.943996|    0.395610|
|        4177|    2.084112|    4.609838|    4.946194|    0.499140|
|        4178|    2.084890|    4.609604|    4.947596|    0.395514|
|        4179|    2.085574|    4.610180|    4.948171|    0.516307|
|        4180|    2.086051|    4.610906|    4.947990|    0.387924|
|        4181|    2.086391|    4.611757|    4.946886|    0.534948|
|        4182|    2.086577|    4.613081|    4.944952|    0.383884|
|        4183|    2.086658|    4.613885|    4.939070|    0.555562|
|        4184|    2.086574|    4.632952|    4.951395|    0.381373|
|        4185|    2.086541|    4.758259|    5.042300|    0.575254|
|        4186|    2.086289|    4.762313|    5.038882|    0.371802|
|        4187|    2.086049|    4.766245|    5.035451|    0.587734|
|        4188|    2.085798|    4.770047|    5.031685|    0.564338|
|        4189|    2.085853|    4.774671|    5.027633|    0.612434|
|        4190|    2.085439|    4.778590|    5.023488|    0.392619|
|        4191|    2.084949|    4.782161|    5.018936|    0.609927|
|        4192|    2.084405|    4.785539|    5.014208|    0.354046|
|        4193|    2.084260|    4.789764|    5.009315|    0.629782|
|        4194|    2.083695|    4.793887|    5.004110|    0.328525|
|        4195|    2.083277|    4.798130|    4.999307|    0.646161|
|        4196|    2.082975|    4.802239|    4.994091|    0.311165|
|        4197|    2.082725|    4.805932|    4.988524|    0.661216|
|        4198|    2.082295|    4.809716|    4.982775|    0.276320|
|        4199|    2.091294|    4.829659|    4.977210|    0.694950|
|        4200|    2.092213|    4.834462|    4.971447|    0.286266|
|        4201|    2.090213|    4.833806|    4.965514|    1.090146|
|        4202|    2.123030|    4.885574|    4.961947|    0.665855|
|        4203|    2.124946|    4.898929|    4.956274|    0.769907|
|        4204|    2.134067|    4.917249|    4.951440|    0.529196|
|        4205|    2.136466|    4.923685|    4.945423|    0.722880|
|        4206|    2.138246|    4.928179|    4.939999|    0.454684|
|        4207|    2.139708|    4.932528|    4.934667|    0.731844|
|        4208|    2.141895|    4.936681|    4.929188|    0.220096|
|        4209|    2.142731|    4.942151|    4.923811|    0.597048|
|        4210|    2.142189|    4.940751|    4.918129|    0.123672|
|        4211|    2.141581|    4.943522|    4.912610|    0.827058|
|        4212|    2.140391|    4.959938|    4.921739|    0.760170|
|        4213|    2.139168|    5.106221|    5.040090|    0.764883|
|        4214|    2.138625|    5.126164|    5.052078|    0.493386|
|        4215|    2.137702|    5.320956|    5.208585|    0.657091|
|        4216|    2.136338|    5.347304|    5.227929|    0.843715|
|        4217|    2.142267|    5.812386|    5.645032|    0.753432|
|        4218|    2.140748|    5.803032|    5.627439|    0.742383|
|        4219|    2.139765|    5.760479|    5.603950|    0.574506|
|        4220|    2.140406|    6.038688|    5.900425|    0.769965|
|        4221|    2.135700|    5.693120|    5.633670|    0.878818|
|        4222|    2.135211|    5.702248|    5.864464|    0.832511|
|        4223|    2.134989|    5.706098|    5.927683|    0.774788|
|        4224|    2.135111|    5.711040|    5.990058|    0.814178|
|        4225|    2.135330|    5.713090|    6.032345|    0.959947|
|        4226|    2.135521|    5.710551|    6.066039|    0.778848|
|        4227|    2.135691|    5.707284|    6.093442|    0.700019|
|        4228|    2.135955|    5.733029|    6.114331|    0.613698|
|        4229|    2.136001|    5.735855|    6.116665|    0.637838|
|        4230|    2.136011|    5.740328|    6.116804|    0.390237|
|        4231|    2.136031|    5.744134|    6.112148|    0.345966|
|        4232|    2.136004|    5.749702|    6.104801|    0.638227|
|        4233|    2.135923|    5.755292|    6.094271|    0.711928|
|        4234|    2.135793|    5.765131|    6.082329|    0.605215|
|        4235|    2.135509|    5.778386|    6.067098|    0.721603|
|        4236|    2.135057|    5.789082|    6.045802|    0.633512|
|        4237|    2.134398|    5.798637|    6.021125|    0.729056|
|        4238|    2.133708|    5.806569|    5.993928|    0.579028|
|        4239|    2.133066|    5.813041|    5.965279|    0.655902|
|        4240|    2.132655|    5.817639|    5.936232|    0.624070|
|        4241|    2.132137|    5.820436|    5.907275|    1.095526|
|        4242|    2.139282|    5.821884|    5.882174|    0.599140|
|        4243|    2.138747|    5.810236|    5.857465|    0.709907|
|        4244|    2.140054|    5.793720|    5.838772|    0.614756|
|        4245|    2.138804|    5.769889|    5.823537|    0.975327|
|        4246|    2.138376|    5.727903|    5.818405|    1.172400|
|        4247|    2.143071|    6.681605|    6.944334|    0.898513|
|        4248|    2.139323|    5.974862|    6.017266|    0.865826|
|        4249|    2.142502|    5.910279|    5.975846|    0.831673|
|        4250|    2.150411|    5.757096|    5.912117|    1.199973|
|        4251|    2.147422|    5.841672|    5.947240|    1.088959|
|        4252|    2.145675|    5.839286|    5.854637|    2.083167|
|        4253|    2.645604|    6.855285|    6.841180|    1.832664|
|        4254|    2.697777|    6.659004|    6.931431|    1.676936|
|        4255|    2.704276|    6.690743|    6.948709|    1.618354|
|        4256|    2.688621|    6.748492|    6.978196|    1.569835|
|        4257|    2.658515|    6.834408|    7.072641|    1.778487|
|        4258|    2.637304|    6.795825|    7.135751|    1.819489|
|        4259|    2.619519|    6.803090|    7.176299|    1.474433|
|        4260|    2.642719|    6.784442|    7.166435|    1.395018|
|        4261|    2.757816|    6.951662|    7.297334|    1.713310|
|        4262|    2.852024|    7.211551|    7.488732|    1.643983|
|        4263|    2.912202|    7.332761|    7.562475|    1.325414|
|        4264|    3.022951|    7.439677|    7.601846|    1.054545|
|        4265|    3.114760|    7.535404|    7.663296|    1.079213|
|        4266|    3.130435|    7.566986|    7.690918|    0.846492|
|        4267|    3.141193|    7.588135|    7.712559|    0.882888|
|        4268|    3.148014|    7.587616|    7.714462|    0.800121|
|        4269|    3.151888|    7.575446|    7.706660|    0.884403|
|        4270|    3.152660|    7.568016|    7.702567|    0.850998|
|        4271|    3.151022|    7.566845|    7.704852|    0.919372|
|        4272|    3.147058|    7.584551|    7.724829|    0.887220|
|        4273|    3.142046|    7.601257|    7.744438|    0.948554|
|        4274|    3.136662|    7.610684|    7.755746|    0.951767|
|        4275|    3.131494|    7.609542|    7.757641|    0.984393|
|        4276|    3.127402|    7.602670|    7.754481|    1.406811|
|        4277|    3.125205|    7.588505|    7.742707|    1.421498|
|        4278|    3.118568|    7.663749|    7.814435|    1.307640|
|        4279|    3.113834|    7.670429|    7.824625|    1.450722|
|        4280|    3.110892|    7.549373|    7.714174|    1.372500|
|        4281|    3.105968|    7.580903|    7.743042|    1.292282|
|        4282|    3.142230|    8.009554|    8.144542|    1.528916|
|        4283|    3.149288|    8.829551|    8.946640|    1.111281|
|        4284|    3.150981|    9.575464|    9.686534|    1.202783|
|        4285|    3.162967|   10.300836|   10.362016|    1.477693|
|        4286|    3.189330|   10.261521|   10.286092|    1.787212|
|        4287|    3.190724|   10.815511|   10.830417|    1.757179|
|        4288|    3.227999|   10.193025|    9.904198|    1.831891|
|        4289|    3.228195|   10.103715|    9.806915|    2.319937|
|        4290|    3.227579|    9.954086|    9.707045|    2.508220|
|        4291|    3.226427|    9.731279|    9.567914|    2.307198|
|        4292|    3.225548|    9.450806|    9.345833|    2.194352|
|        4293|    3.224204|    9.238055|    9.181005|    2.222076|
|        4294|    3.222300|    9.355996|    9.320665|    2.339429|
|        4295|    3.221600|    9.085036|    8.961314|    2.175730|
|        4296|    3.218302|    9.236886|    9.313384|    2.317622|
|        4297|    3.219202|    9.057934|    8.773281|    2.312180|
|        4298|    3.213144|    8.285070|    8.514017|    2.313084|
|        4299|    3.204860|    8.218498|    8.695304|    2.772328|
|        4300|    3.199463|    8.029753|    8.590478|    2.937518|
|        4301|    3.192844|    8.362971|    8.974945|    2.382019|
|        4302|    3.189161|    8.136771|    8.749754|    2.557428|
|        4303|    3.183862|    8.250653|    8.940124|    2.483619|
|        4304|    3.178308|    8.163300|    8.941141|    2.868908|
|        4305|    3.175157|    8.131351|    8.938064|    2.481740|
|        4306|    3.171858|    8.136855|    8.936609|    2.505553|
|        4307|    3.168873|    8.099191|    8.935477|    2.448977|
|        4308|    3.166399|    8.181680|    8.561407|    2.612158|
|        4309|    3.158789|    8.166340|    8.652659|    2.522966|
|        4310|    3.153435|    8.187409|    8.830203|    2.579130|
|        4311|    3.150014|    8.184630|    8.920888|    2.508567|
|        4312|    3.147374|    9.021699|    9.608435|    2.533682|
|        4313|    3.147431|    9.030325|    9.236464|    2.452416|
|        4314|    3.144635|    8.829431|    9.246611|    2.511136|
|        4315|    3.142954|    8.636910|    9.245833|    2.379539|
|        4316|    3.141545|    8.358971|    9.168471|    2.469261|
|        4317|    3.140149|    8.356162|    9.165087|    2.893794|
|        4318|    3.138634|    8.298335|    9.154796|    2.747464|
|        4319|    3.137282|    8.294789|    9.153160|    2.397172|
|        4320|    3.136331|    8.333159|    9.153594|    2.547735|
|        4321|    3.133711|    8.548085|    9.177622|    2.439175|
|        4322|    3.132469|    9.005225|    9.184071|    2.525557|
|        4323|    3.128761|    8.664721|    9.157563|    2.490608|
|        4324|    3.126968|    8.783791|    9.171065|    2.500263|
|        4325|    3.125377|    8.826367|    9.144838|    2.496707|
|        4326|    3.123846|    8.729023|    9.132128|    2.501570|
|        4327|    3.122326|    8.745342|    9.127942|    2.719192|
|        4328|    3.120667|    8.966598|    9.143393|    2.493381|
|        4329|    3.118950|    8.815933|    9.117997|    2.500888|
|        4330|    3.116816|    8.587661|    9.114940|    2.496539|
|        4331|    3.114323|    8.648904|    9.122310|    2.484954|
|        4332|    3.112509|    8.662074|    9.161679|    2.483885|
|        4333|    3.110858|    8.626178|    9.124639|    2.478839|
|        4334|    3.109429|    8.618929|    9.128269|    2.475522|
|        4335|    3.107915|    8.610875|    9.129469|    2.468325|
|        4336|    3.106530|    8.692789|    9.212621|    2.456879|
|        4337|    3.104935|    8.655001|    9.180241|    2.452148|
|        4338|    3.103517|    8.602916|    9.165737|    2.449747|
|        4339|    3.101496|    8.575512|    9.166670|    2.452943|
|        4340|    3.099694|    8.510974|    9.160425|    2.447489|
|        4341|    3.098103|    8.474724|    9.160389|    2.449322|
|        4342|    3.096581|    8.439539|    9.161072|    2.446698|
|        4343|    3.094970|    8.390380|    9.161492|    2.448060|
|        4344|    3.093572|    8.380179|    9.163030|    2.442900|
|        4345|    3.092248|    8.367818|    9.164627|    2.437506|
|        4346|    3.090930|    8.359970|    9.166094|    2.424843|
|        4347|    3.089458|    8.372729|    9.166976|    2.403816|
|        4348|    3.088911|    8.343784|    9.168751|    2.287313|
|        4349|    3.088767|    8.688713|    9.201584|    2.417038|
|        4350|    3.142228|   10.319072|   10.327390|    2.501458|
|        4351|    3.205884|   11.157588|   11.217843|    2.366393|
|        4352|    3.119475|   10.722330|   10.766391|    2.240374|
|        4353|    3.095320|   10.038903|   10.204770|    2.378406|
|        4354|    3.238279|   11.455670|   10.162717|    2.793618|
|        4355|    3.246297|   11.657805|   10.888496|    2.874361|
|        4356|    3.218221|   11.487698|   10.502708|    3.060088|
|        4357|    3.192132|   11.565612|   10.926940|    2.907528|
|        4358|    3.186398|   11.369368|   10.489769|    3.130446|
|        4359|    3.207941|   11.452712|   10.871132|    2.989857|
|        4360|    3.214097|   11.201112|   10.702074|    2.948245|
|        4361|    3.291341|   11.277700|   11.225637|    2.886890|
|        4362|    3.325084|   11.376572|   11.384079|    3.008166|
|        4363|    3.288506|   11.218513|   11.323833|    3.188103|
|        4364|    3.354469|   11.033643|   10.992748|    3.328614|
|        4365|    3.469995|   11.656251|   11.781115|    3.168504|
|        4366|    3.408347|   11.207969|   11.287718|    3.230658|
|        4367|    3.523895|   11.949026|   12.003424|    3.220777|
|        4368|    3.438541|   11.554428|   11.433280|    3.150661|
|        4369|    3.527646|   11.942504|   11.913463|    3.055651|
|        4370|    3.495206|   11.790799|   11.423144|    2.952555|
|        4371|    3.543916|   12.184778|   12.080097|    3.191925|
|        4372|    3.580428|   12.743472|   12.512150|    3.501885|
|        4373|    3.679756|   13.477225|   12.917756|    4.146524|
|        4374|    4.539340|   14.654209|   13.985025|    4.279533|
|        4375|    4.574335|   14.929116|   13.968494|    4.716407|
|        4376|    4.843234|   15.713680|   14.845060|    4.721422|
|        4377|    4.950944|   15.815210|   14.894736|    4.788018|
|        4378|    5.060130|   15.942869|   15.235374|    4.831289|
|        4379|    5.174460|   16.133122|   15.298181|    4.844898|
|        4380|    5.263821|   16.258425|   15.449551|    4.847904|
|        4381|    5.345470|   16.417536|   15.660138|    4.829988|
|        4382|    5.404374|   16.496152|   15.756760|    4.796615|
|        4383|    5.458726|   16.615019|   15.919894|    4.784716|
|        4384|    5.498207|   16.705821|   16.047310|    4.778917|
|        4385|    5.529839|   16.667212|   15.967469|    4.903350|
|        4386|    5.575886|   17.190226|   16.684860|    4.881672|
|        4387|    5.600927|   16.697552|   16.073993|    5.047266|
|        4388|    5.722989|   16.985471|   16.256418|    6.872563|
|        4389|    5.923113|   19.270204|   18.764675|    5.213956|
|        4390|    6.268835|   17.997855|   17.985810|    5.677012|
|        4391|    6.027770|   17.986991|   17.889996|    5.154544|
|        4392|    5.989677|   17.925092|   17.611164|    5.184734|
|        4393|    5.995817|   17.843081|   17.418441|    5.271793|
|        4394|    6.008096|   17.754573|   17.300474|    5.343785|
|        4395|    6.018448|   17.776236|   17.326566|    5.341793|
|        4396|    6.026483|   17.772430|   17.325884|    5.353134|
|        4397|    6.035968|   17.751037|   17.296948|    5.368678|
|        4398|    6.047281|   17.738631|   17.275299|    5.384470|
|        4399|    6.059948|   17.736692|   17.266165|    5.435874|
|        4400|    6.072680|   17.742233|   17.269140|    5.407599|
|        4401|    6.084824|   17.750619|   17.279722|    5.434796|
|        4402|    6.096020|   17.757703|   17.292331|    5.422381|
|        4403|    6.106214|   17.760749|   17.302070|    5.468142|
|        4404|    6.115262|   17.759207|   17.306486|    5.436237|
|        4405|    6.123577|   17.757439|   17.310043|    5.481304|
|        4406|    6.131461|   17.755344|   17.311537|    5.449564|
|        4407|    6.139076|   17.756173|   17.314986|    5.519263|
|        4408|    6.146455|   17.761650|   17.322888|    5.439075|
|        4409|    6.153744|   17.772915|   17.337591|    5.454898|
|        4410|    6.160675|   17.788905|   17.357872|    5.447766|
|        4411|    6.167160|   17.810722|   17.386786|    5.492719|
|        4412|    6.172407|   17.833823|   17.416694|    5.457266|
|        4413|    6.176781|   17.858890|   17.450443|    5.473369|
|        4414|    6.180253|   17.882944|   17.483540|    5.464907|
|        4415|    6.182902|   17.905589|   17.515396|    5.518714|
|        4416|    6.185148|   17.926376|   17.545207|    5.490978|
|        4417|    6.186817|   17.946148|   17.574054|    5.518661|
|        4418|    6.188013|   17.963779|   17.600429|    5.474966|
|        4419|    6.188825|   17.980027|   17.625136|    5.529456|
|        4420|    6.189375|   17.994531|   17.647463|    5.509047|
|        4421|    6.189755|   18.007799|   17.668172|    5.574803|
|        4422|    6.190071|   18.020270|   17.687880|    5.537627|
|        4423|    6.190270|   18.031787|   17.706354|    5.580432|
|        4424|    6.190719|   18.042551|   17.723778|    5.540695|
|        4425|    6.191087|   18.052126|   17.739652|    5.541910|
|        4426|    6.191344|   18.060807|   17.754152|    5.543181|
|        4427|    6.191447|   18.068022|   17.767127|    5.544897|
|        4428|    6.191458|   18.073788|   17.778148|    5.547079|
|        4429|    6.191516|   18.077324|   17.786415|    5.549643|
|        4430|    6.191667|   18.077874|   17.791056|    5.552769|
|        4431|    6.191950|   18.074110|   17.790554|    5.556678|
|        4432|    6.192340|   18.064195|   17.782640|    5.559723|
|        4433|    6.192958|   18.046901|   17.765756|    5.562829|
|        4434|    6.193758|   18.023548|   17.741375|    5.538883|
|        4435|    6.194896|   18.000885|   17.717579|    5.489809|
|        4436|    6.195976|   17.991153|   17.710605|    5.496881|
|        4437|    6.197215|   17.992564|   17.717898|    5.495949|
|        4438|    6.198618|   17.996602|   17.728657|    5.499569|
|        4439|    6.200628|   18.000384|   17.739199|    5.501882|
|        4440|    6.202317|   17.999993|   17.744551|    5.522273|
|        4441|    6.203777|   17.999318|   17.749666|    5.510381|
|        4442|    6.205511|   17.998061|   17.754138|    5.514245|
|        4443|    6.207543|   17.996613|   17.758544|    5.522868|
|        4444|    6.209782|   17.995134|   17.762973|    5.528267|
|        4445|    6.210358|   18.121387|   17.921102|    5.532990|
|        4446|    6.213852|   18.092279|   17.890548|    5.615180|
|        4447|    6.215946|   18.059622|   17.857258|    5.646529|
|        4448|    6.217826|   18.037311|   17.836242|    5.582834|
|        4449|    6.220629|   17.998730|   17.795442|    5.546922|
|        4450|    6.223782|   17.957250|   17.750732|    5.552008|
|        4451|    6.227425|   17.917063|   17.707265|    5.520515|
|        4452|    6.231472|   17.879232|   17.666467|    5.528159|
|        4453|    6.236148|   17.843758|   17.628673|    5.536895|
|        4454|    6.241036|   17.810657|   17.593883|    5.546877|
|        4455|    6.246318|   17.780000|   17.562177|    5.557783|
|        4456|    6.251989|   17.751568|   17.533460|    5.570763|
|        4457|    6.258010|   17.726177|   17.505884|    5.577331|
|        4458|    6.266211|   17.702592|   17.478511|    5.597897|
|        4459|    6.275155|   17.681175|   17.454128|    5.612809|
|        4460|    6.284625|   17.661670|   17.432204|    5.640466|
|        4461|    6.294773|   17.643385|   17.411713|    5.668307|
|        4462|    6.306585|   17.624851|   17.390251|    5.604884|
|        4463|    6.319795|   17.620537|   17.392744|    5.593254|
|        4464|    6.332980|   17.620742|   17.405201|    5.591141|
|        4465|    6.338732|   17.626080|   17.415972|    5.681284|
|        4466|    6.350441|   17.611211|   17.426274|    5.597863|
|        4467|    6.357415|   17.601642|   17.435416|    5.694253|
|        4468|    6.359508|   17.588352|   17.443385|    5.649578|
|        4469|    6.365215|   17.573288|   17.450641|    5.613299|


Error in "void CSolver::SetResidual_RMS(const CGeometry*, const CConfig*)": 
-------------------------------------------------------------------------
SU2 has diverged (Residual > 10^20 detected).
------------------------------ Error Exit -------------------------------


