scsub> Executing:  'cd /home/hem1dev/Codes/SU2_Github_Mark_Test/SU2/Venturi'


WARNING: CONV_CRITERIA is deprecated. SU2 will choose the criteria automatically based on the CONV_FIELD.
That is, RESIDUAL for any RMS_* BGS_* value, and CAUCHY for coefficients such as DRAG etc.


-------------------------------------------------------------------------
|    ___ _   _ ___                                                      |
|   / __| | | |_  )   Release 7.1.1 "Blackbird"                         |
|   \__ \ |_| |/ /                                                      |
|   |___/\___//___|   Suite (Computational Fluid Dynamics Code)         |
|                                                                       |
-------------------------------------------------------------------------
| SU2 Project Website: https://su2code.github.io                        |
|                                                                       |
| The SU2 Project is maintained by the SU2 Foundation                   |
| (http://su2foundation.org)                                            |
-------------------------------------------------------------------------
| Copyright 2012-2021, SU2 Contributors                                 |
|                                                                       |
| SU2 is free software; you can redistribute it and/or                  |
| modify it under the terms of the GNU Lesser General Public            |
| License as published by the Free Software Foundation; either          |
| version 2.1 of the License, or (at your option) any later version.    |
|                                                                       |
| SU2 is distributed in the hope that it will be useful,                |
| but WITHOUT ANY WARRANTY; without even the implied warranty of        |
| MERCHANTABILITY or FITNESS FOR A PARTICULAR PURPOSE. See the GNU      |
| Lesser General Public License for more details.                       |
|                                                                       |
| You should have received a copy of the GNU Lesser General Public      |
| License along with SU2. If not, see <http://www.gnu.org/licenses/>.   |
-------------------------------------------------------------------------


WARNING: CONV_CRITERIA is deprecated. SU2 will choose the criteria automatically based on the CONV_FIELD.
That is, RESIDUAL for any RMS_* BGS_* value, and CAUCHY for coefficients such as DRAG etc.


Parsing config file for zone 0


WARNING: CONV_CRITERIA is deprecated. SU2 will choose the criteria automatically based on the CONV_FIELD.
That is, RESIDUAL for any RMS_* BGS_* value, and CAUCHY for coefficients such as DRAG etc.


----------------- Physical Case Definition ( Zone 0 ) -------------------
Incompressible RANS equations.
Turbulence model: Menter's SST
Hybrid RANS/LES: No Hybrid RANS/LES
No restart solution, use the values at infinity (freestream).
Dimensional simulation.
The reference area is 1 m^2.
The semi-span will be computed using the max y(3D) value.
The reference length is 1 m.
Input mesh file name: c6_cms_venturi.cgns

--------------- Space Numerical Integration ( Zone 0 ) ------------------
Flux difference splitting (FDS) upwind scheme for the flow inviscid terms.
Second order integration in space, with slope limiter.
No slope-limiting method. 
Average of gradients with correction (viscous flow terms).
Average of gradients with correction (viscous turbulence terms).
Gradient for upwind reconstruction: Green-Gauss.
Gradient for viscous and source terms: Green-Gauss.

--------------- Time Numerical Integration  ( Zone 0 ) ------------------
Local time stepping (steady state simulation).
Euler implicit method for the flow equations.
FGMRES is used for solving the linear system.
Using a ILU(0) preconditioning.
Convergence criteria of the linear solver: 1e-08.
Max number of linear iterations: 50.
No CFL adaptation.
Courant-Friedrichs-Lewy number:      100
Euler implicit time integration for the turbulence model.

------------------ Convergence Criteria  ( Zone 0 ) ---------------------
Maximum number of solver subiterations: 30000.
Begin convergence monitoring at iteration 10.
Residual minimum value: 1e-10.
Cauchy series min. value: 1e-06.
Number of Cauchy elements: 100.
Begin windowed time average at iteration 0.

-------------------- Output Information ( Zone 0 ) ----------------------
Writing solution files every 1000 iterations.
Writing the convergence history file every 1 inner iterations.
Writing the screen convergence history every 1 inner iterations.
The tabular file format is CSV (.csv).
Convergence history file name: history_test.
Forces breakdown file name: forces_breakdown.dat.
Surface file name: surface_flow_venturi_mixturedensity_30kW_fine_test.
Volume file name: flow_venturi_mixturedensity_30kW_fine_test.
Restart file name: restart_venturi_mixturedensity_30kW_fine_test.dat.

------------- Config File Boundary Information ( Zone 0 ) ---------------
+-----------------------------------------------------------------------+
|                        Marker Type|                        Marker Name|
+-----------------------------------------------------------------------+
|                     Symmetry plane|                               axis|
+-----------------------------------------------------------------------+
|                     Inlet boundary|                          gas_inlet|
|                                   |                          air_inlet|
+-----------------------------------------------------------------------+
|                    Outlet boundary|                             outlet|
+-----------------------------------------------------------------------+
|                     Heat flux wall|            wall-component1-surface|
+-----------------------------------------------------------------------+

-------------------- Output Preprocessing ( Zone 0 ) --------------------
Screen output fields: INNER_ITER, RMS_PRESSURE, RMS_VELOCITY-X, RMS_VELOCITY-Y, RMS_PASSIVE_SCALAR
History output group(s): RMS_RES, AERO_COEFF, FLOW_COEFF
Convergence field(s): RMS_PRESSURE, RMS_VELOCITY-X, RMS_VELOCITY-Y, RMS_TKE
Warning: No (valid) fields chosen for time convergence monitoring. Time convergence monitoring inactive.
  Info: Ignoring the following volume output fields/groups:
  SOURCE, LOOKUP
Volume output fields: DENSITY, SOLUTION, PRIMITIVE, RESIDUAL, COORDINATES

------------------- Geometry Preprocessing ( Zone 0 ) -------------------
Reading the CGNS file: c6_cms_venturi.cgns.
CGNS file contains 1 database(s).
Database 1, Base:  cell dimension of 2, physical dimension of 2.
1 total zone(s).
Zone 1, Zone: 292948 total vertices, 295883 total elements.
Loading CoordinateX values into linear partitions.
Loading CoordinateY values into linear partitions.
Distributing connectivity across all ranks.
Number of connectivity sections is 6.
Section gas_inlet contains 51 elements of type Mixed.
Section air_inlet contains 150 elements of type Mixed.
Section outlet contains 157 elements of type Mixed.
Section axis contains 1721 elements of type Mixed.
Section component1-surface contains 290183 elements of type Mixed.
Section wall-component1-surface contains 3621 elements of type Mixed.
Loading surface section gas_inlet from file.
Loading surface section air_inlet from file.
Loading surface section outlet from file.
Loading surface section axis from file.
Loading volume section component1-surface from file.
Loading surface section wall-component1-surface from file.
Two dimensional problem.
292948 grid points before partitioning.
290183 volume elements before partitioning.
5 surface markers.
51 boundary elements in index 0 (Marker = gas_inlet).
150 boundary elements in index 1 (Marker = air_inlet).
157 boundary elements in index 2 (Marker = outlet).
1721 boundary elements in index 3 (Marker = axis).
3621 boundary elements in index 4 (Marker = wall-component1-surface).
Executing the partitioning functions.
Building the graph adjacency structure.
Calling ParMETIS... graph partitioning complete (13484 edge cuts).
Distributing ParMETIS coloring.
Rebalancing vertices.
Rebalancing volume element connectivity.
Rebalancing markers and surface elements.
320267 vertices including ghost points. 
303703 interior elements including halo cells. 
172 triangles.
303531 quadrilaterals.
Establishing MPI communication patterns.
Setting point connectivity.
Renumbering points (Reverse Cuthill McKee Ordering).
Recomputing point connectivity.
Setting element connectivity.
Checking the numerical grid orientation.
All volume elements are correctly orientend.
All surface elements are correctly orientend.
Identifying edges and vertices.
Setting the control volume structure.
Area of the computational grid: 0.00285832.
Searching for the closest normal neighbors to the surfaces.
Storing a mapping from global to local point index.
Compute the surface curvature.
Max K: 25766.3. Mean K: 66.0693. Standard deviation K: 1007.76.
Checking for periodicity.
Computing mesh quality statistics for the dual control volumes.
+--------------------------------------------------------------+
|           Mesh Quality Metric|        Minimum|        Maximum|
+--------------------------------------------------------------+
|    Orthogonality Angle (deg.)|        45.2115|             90|
|     CV Face Area Aspect Ratio|              1|        10.3208|
|           CV Sub-Volume Ratio|              1|        9.85984|
+--------------------------------------------------------------+
Finding max control volume width.
Communicating number of neighbors.
Wetted area = 0 m^2.
Area projection in the x-plane = 0 m, y-plane = 0 m.
Max. coordinate in the x-direction = -1e+10 m, y-direction = -1e+10 m.
Min. coordinate in the x-direction = 1e+10 m, y-direction = 1e+10 m.
Checking if Euler & Symmetry markers are straight/plane:
Boundary marker axis is a single straight.
Computing wall distances.

-------------------- Solver Preprocessing ( Zone 0 ) --------------------
Incompressible flow: rho_ref, vel_ref, temp_ref, p_ref
are set to 1.0 in order to perform a dimensional calculation.
Force coefficients computed using initial values.
The reference area for force coeffs. is 1 m^2.
The reference length for force coeffs. is 1 m.
The pressure is decomposed into thermodynamic and dynamic components.
The initial value of the dynamic pressure is 0.
Mach number: 0, computed using fluid speed of sound.
For external flows, the initial state is imposed at the far-field.
Angle of attack (deg): 0, computed using the initial velocity.
Side slip angle (deg): 0, computed using the initial velocity.
Reynolds number per meter: 107335, computed using initial values.
Reynolds number is a byproduct of inputs only (not used internally).
SI units only. The grid should be dimensional (meters).
Energy equation is active and coupled for variable density.

-- Models:
+------------------------------------------------------------------------------+
|          Viscosity Model|        Conductivity Model|              Fluid Model|
+------------------------------------------------------------------------------+
|               SUTHERLAND|          CONSTANT_PRANDTL|+------------------------------------------------------------------------------+
-- Fluid properties:
+------------------------------------------------------------------------------+
|                  Name|    Dim. value|    Ref. value|      Unit|Non-dim. value|
+------------------------------------------------------------------------------+
|        Ref. Viscosity|     1.716e-05|             1|   N.s/m^2|     1.716e-05|
|      Sutherland Temp.|        273.15|             1|         K|        273.15|
|     Sutherland Const.|         110.4|             1|         K|         110.4|
+------------------------------------------------------------------------------+
|        Prandtl (Lam.)|             -|             -|         -|          0.72|
|       Prandtl (Turb.)|             -|             -|         -|           0.9|
+------------------------------------------------------------------------------+
-- Initial and free-stream conditions:
+------------------------------------------------------------------------------+
|                  Name|    Dim. value|    Ref. value|      Unit|Non-dim. value|
+------------------------------------------------------------------------------+
|      Dynamic Pressure|             0|             1|        Pa|             0|
|        Total Pressure|           0.6|             1|        Pa|           0.6|
|               Density|           1.2|             1|    kg/m^3|           1.2|
|           Temperature|           300|             1|         K|           300|
|            Velocity-X|             1|             1|       m/s|             1|
|            Velocity-Y|             0|             1|       m/s|             0|
|    Velocity Magnitude|             1|             1|       m/s|             1|
+------------------------------------------------------------------------------+
|             Viscosity|     1.118e-05|             1|   N.s/m^2|     1.118e-05|
|          Conductivity|             -|             1|   W/m^2.K|             -|
|     Turb. Kin. Energy|       0.00375|             1|   m^2/s^2|       0.00375|
|     Spec. Dissipation|       40.2504|             1|       1/s|       40.2504|
+------------------------------------------------------------------------------+
|           Mach Number|             -|             -|         -|             0|
|       Reynolds Number|             -|             -|         -|        107335|
+------------------------------------------------------------------------------+
Initialize Jacobian structure (Navier-Stokes). MG level: 0.
Initialize Jacobian structure (passive scalar model).
Initialize Jacobian structure (SST model).

------------------- Numerics Preprocessing ( Zone 0 ) -------------------

----------------- Integration Preprocessing ( Zone 0 ) ------------------

------------------- Iteration Preprocessing ( Zone 0 ) ------------------
Euler/Navier-Stokes/RANS fluid iteration.

------------------------------ Begin Solver -----------------------------

Simulation Run using the Single-zone Driver
Initializing passive scalar (initial condition).
initialization = 1 1
+----------------------------------------------------------------+
|  Inner_Iter|      rms[P]|      rms[U]|      rms[V]|      rms[c]|
+----------------------------------------------------------------+
|           0|   -5.655793|   -6.168261|   -5.612952|   -5.815086|
|           1|   -5.759483|   -5.102139|   -5.567343|   -6.145445|
|           2|   -6.081744|   -5.591239|   -5.811023|   -6.264317|
|           3|   -6.247925|   -5.944505|   -5.940744|   -6.397364|
|           4|   -6.364725|   -6.098929|   -5.940502|   -6.502228|
|           5|   -6.457862|   -6.231365|   -5.965806|   -6.544456|
|           6|   -6.518048|   -6.278985|   -6.006742|   -6.547560|
|           7|   -6.534557|   -6.295909|   -6.096559|   -6.560706|
|           8|   -6.548915|   -6.335824|   -6.295109|   -6.630023|
|           9|   -6.614093|   -6.373287|   -6.434785|   -6.685419|
|          10|   -6.665694|   -6.402463|   -6.295603|   -6.700538|
|          11|   -6.664504|   -6.422990|   -6.152511|   -6.678592|
|          12|   -6.617068|   -6.421554|   -6.036094|   -6.649600|
|          13|   -6.575845|   -6.400752|   -5.957343|   -6.629461|
|          14|   -6.568315|   -6.371872|   -5.914677|   -6.619314|
|          15|   -6.592455|   -6.345277|   -5.914945|   -6.616155|
|          16|   -6.634667|   -6.322350|   -5.953065|   -6.617143|
|          17|   -6.677070|   -6.299797|   -6.006248|   -6.619238|
|          18|   -6.710159|   -6.275246|   -6.056299|   -6.620671|
|          19|   -6.731426|   -6.249191|   -6.088920|   -6.618324|
|          20|   -6.740881|   -6.222042|   -6.096290|   -6.611191|
|          21|   -6.741663|   -6.193711|   -6.082018|   -6.599666|
|          22|   -6.738583|   -6.163979|   -6.057819|   -6.584150|
|          23|   -6.735045|   -6.133210|   -6.033103|   -6.565509|
|          24|   -6.732842|   -6.103049|   -6.011777|   -6.545380|
|          25|   -6.733076|   -6.075456|   -5.994979|   -6.524823|
|          26|   -6.735511|   -6.051713|   -5.982490|   -6.504487|
|          27|   -6.738915|   -6.031891|   -5.971872|   -6.486090|
|          28|   -6.744142|   -6.015410|   -5.963434|   -6.469118|
|          29|   -6.749701|   -6.001073|   -5.954831|   -6.453923|
|          30|   -6.756254|   -5.988103|   -5.947063|   -6.440134|
|          31|   -6.763203|   -5.975826|   -5.940234|   -6.427476|
|          32|   -6.770466|   -5.963906|   -5.934886|   -6.415608|
|          33|   -6.777671|   -5.952133|   -5.930425|   -6.404270|
|          34|   -6.784744|   -5.940457|   -5.926513|   -6.393271|
|          35|   -6.791590|   -5.928908|   -5.923291|   -6.382584|
|          36|   -6.798294|   -5.917576|   -5.920809|   -6.372016|
|          37|   -6.804350|   -5.906486|   -5.918068|   -6.361633|
|          38|   -6.810071|   -5.895680|   -5.915325|   -6.351399|
|          39|   -6.815392|   -5.885126|   -5.912431|   -6.341386|
|          40|   -6.820697|   -5.874775|   -5.909890|   -6.331422|
|          41|   -6.825311|   -5.864559|   -5.906813|   -6.321570|
|          42|   -6.829565|   -5.854480|   -5.903454|   -6.311842|
|          43|   -6.833519|   -5.844546|   -5.899823|   -6.302299|
|          44|   -6.837440|   -5.834782|   -5.896272|   -6.292960|
|          45|   -6.841299|   -5.825202|   -5.892716|   -6.283863|
|          46|   -6.845161|   -5.815825|   -5.889310|   -6.275031|
|          47|   -6.849008|   -5.806665|   -5.886055|   -6.266487|
|          48|   -6.852858|   -5.797736|   -5.883002|   -6.258240|
|          49|   -6.856699|   -5.789053|   -5.880132|   -6.250294|
|          50|   -6.860526|   -5.780637|   -5.877450|   -6.242642|
|          51|   -6.864329|   -5.772511|   -5.874953|   -6.235269|
|          52|   -6.868103|   -5.764699|   -5.872655|   -6.228153|
|          53|   -6.871841|   -5.757221|   -5.870551|   -6.221264|
|          54|   -6.875541|   -5.750096|   -5.868660|   -6.214569|
|          55|   -6.879196|   -5.743330|   -5.866970|   -6.208030|
|          56|   -6.882807|   -5.736924|   -5.865463|   -6.201602|
|          57|   -6.886369|   -5.730866|   -5.864100|   -6.195240|
|          58|   -6.889880|   -5.725141|   -5.862838|   -6.188894|
|          59|   -6.893339|   -5.719725|   -5.861626|   -6.182510|
|          60|   -6.896741|   -5.714597|   -5.860418|   -6.176036|
|          61|   -6.900080|   -5.709737|   -5.859172|   -6.169417|
|          62|   -6.903348|   -5.705130|   -5.857846|   -6.162606|
|          63|   -6.906533|   -5.700769|   -5.856419|   -6.155564|
|          64|   -6.909618|   -5.696654|   -5.854883|   -6.148271|
|          65|   -6.912589|   -5.692793|   -5.853234|   -6.140729|
|          66|   -6.915439|   -5.689203|   -5.851479|   -6.132970|
|          67|   -6.918153|   -5.685900|   -5.849631|   -6.125056|
|          68|   -6.920718|   -5.682899|   -5.847708|   -6.117076|
|          69|   -6.923118|   -5.680216|   -5.845720|   -6.109139|
|          70|   -6.925338|   -5.677859|   -5.843670|   -6.101364|
|          71|   -6.927369|   -5.675835|   -5.841566|   -6.093870|
|          72|   -6.929209|   -5.674138|   -5.839417|   -6.086765|
|          73|   -6.930862|   -5.672749|   -5.837238|   -6.080142|
|          74|   -6.932339|   -5.671634|   -5.835001|   -6.074073|
|          75|   -6.933656|   -5.670740|   -5.832812|   -6.068605|
|          76|   -6.934827|   -5.669995|   -5.830680|   -6.063760|
|          77|   -6.935891|   -5.669314|   -5.828645|   -6.059533|
|          78|   -6.936872|   -5.668599|   -5.826726|   -6.055897|
|          79|   -6.937810|   -5.667754|   -5.824946|   -6.052804|
|          80|   -6.938743|   -5.666689|   -5.823355|   -6.050200|
|          81|   -6.939713|   -5.665327|   -5.821991|   -6.048023|
|          82|   -6.940759|   -5.663605|   -5.820908|   -6.046215|
|          83|   -6.941911|   -5.661483|   -5.820126|   -6.044728|
|          84|   -6.943244|   -5.658946|   -5.819692|   -6.043525|
|          85|   -6.944845|   -5.656000|   -5.819709|   -6.042577|
|          86|   -6.946671|   -5.652674|   -5.820120|   -6.041867|
|          87|   -6.948759|   -5.649012|   -5.820957|   -6.041386|
|          88|   -6.951111|   -5.645069|   -5.822183|   -6.041132|
|          89|   -6.953756|   -5.640903|   -5.823799|   -6.041103|
|          90|   -6.956700|   -5.636576|   -5.825784|   -6.041298|
|          91|   -6.959964|   -5.632143|   -5.828131|   -6.041713|
|          92|   -6.963574|   -5.627661|   -5.830839|   -6.042335|
|          93|   -6.967544|   -5.623177|   -5.833902|   -6.043149|
|          94|   -6.971884|   -5.618728|   -5.837304|   -6.044131|
|          95|   -6.976612|   -5.614340|   -5.841040|   -6.045252|
|          96|   -6.981745|   -5.610031|   -5.845104|   -6.046480|
|          97|   -6.987299|   -5.605816|   -5.849498|   -6.047776|
|          98|   -6.993284|   -5.601708|   -5.854226|   -6.049104|
|          99|   -6.999725|   -5.597710|   -5.859300|   -6.050425|
|         100|   -7.006632|   -5.593826|   -5.864734|   -6.051702|
|         101|   -7.014011|   -5.590065|   -5.870545|   -6.052899|
|         102|   -7.021874|   -5.586434|   -5.876754|   -6.053985|
|         103|   -7.030231|   -5.582937|   -5.883388|   -6.054933|
|         104|   -7.039087|   -5.579581|   -5.890482|   -6.055718|
|         105|   -7.048448|   -5.576365|   -5.898070|   -6.056324|
|         106|   -7.058292|   -5.573305|   -5.906189|   -6.056737|
|         107|   -7.068618|   -5.570409|   -5.914862|   -6.056946|
|         108|   -7.079417|   -5.567685|   -5.924115|   -6.056947|
|         109|   -7.090678|   -5.565136|   -5.933962|   -6.056737|
|         110|   -7.102401|   -5.562761|   -5.944417|   -6.056319|
|         111|   -7.114541|   -5.560571|   -5.955492|   -6.055696|
|         112|   -7.127112|   -5.558566|   -5.967196|   -6.054873|
|         113|   -7.140087|   -5.556738|   -5.979528|   -6.053857|
|         114|   -7.153394|   -5.555110|   -5.992486|   -6.052656|
|         115|   -7.167058|   -5.553673|   -6.006046|   -6.051278|
|         116|   -7.181006|   -5.552432|   -6.020175|   -6.049731|
|         117|   -7.195197|   -5.551392|   -6.034818|   -6.048024|
|         118|   -7.209558|   -5.550555|   -6.049897|   -6.046164|
|         119|   -7.224023|   -5.549920|   -6.065303|   -6.044160|
|         120|   -7.238484|   -5.549487|   -6.080896|   -6.042020|
|         121|   -7.252829|   -5.549252|   -6.096497|   -6.039751|
|         122|   -7.266887|   -5.549219|   -6.111880|   -6.037361|
|         123|   -7.280485|   -5.549387|   -6.126778|   -6.034857|
|         124|   -7.293397|   -5.549764|   -6.140878|   -6.032247|
|         125|   -7.305459|   -5.550335|   -6.153830|   -6.029537|
|         126|   -7.316336|   -5.551115|   -6.165263|   -6.026734|
|         127|   -7.325883|   -5.552091|   -6.174798|   -6.023844|
|         128|   -7.333825|   -5.553264|   -6.182081|   -6.020873|
|         129|   -7.340025|   -5.554618|   -6.186815|   -6.017825|
|         130|   -7.344266|   -5.556155|   -6.188796|   -6.014705|
|         131|   -7.346458|   -5.557875|   -6.187929|   -6.011518|
|         132|   -7.346617|   -5.559766|   -6.184245|   -6.008270|
|         133|   -7.344728|   -5.561830|   -6.177891|   -6.004966|
|         134|   -7.340933|   -5.564054|   -6.169113|   -6.001612|
|         135|   -7.335315|   -5.566442|   -6.158223|   -5.998214|
|         136|   -7.328105|   -5.568978|   -6.145565|   -5.994781|
|         137|   -7.319447|   -5.571665|   -6.131482|   -5.991319|
|         138|   -7.309571|   -5.574498|   -6.116299|   -5.987838|
|         139|   -7.298670|   -5.577471|   -6.100309|   -5.984346|
|         140|   -7.286933|   -5.580578|   -6.083763|   -5.980853|
|         141|   -7.274531|   -5.583814|   -6.066869|   -5.977368|
|         142|   -7.261623|   -5.587173|   -6.049800|   -5.973902|
|         143|   -7.248343|   -5.590645|   -6.032697|   -5.970465|
|         144|   -7.234810|   -5.594218|   -6.015672|   -5.967067|
|         145|   -7.221125|   -5.597882|   -5.998811|   -5.963719|
|         146|   -7.207377|   -5.601625|   -5.982183|   -5.960431|
|         147|   -7.193642|   -5.605432|   -5.965846|   -5.957214|
|         148|   -7.179983|   -5.609287|   -5.949841|   -5.954078|
|         149|   -7.166454|   -5.613176|   -5.934198|   -5.951032|
|         150|   -7.153103|   -5.617080|   -5.918942|   -5.948087|
|         151|   -7.139967|   -5.620982|   -5.904093|   -5.945249|
|         152|   -7.127080|   -5.624864|   -5.889662|   -5.942528|
|         153|   -7.114469|   -5.628708|   -5.875659|   -5.939931|
|         154|   -7.102157|   -5.632496|   -5.862091|   -5.937462|
|         155|   -7.090164|   -5.636212|   -5.848962|   -5.935128|
|         156|   -7.078507|   -5.639835|   -5.836276|   -5.932932|
|         157|   -7.067195|   -5.643348|   -5.824037|   -5.930877|
|         158|   -7.056231|   -5.646734|   -5.812243|   -5.928963|
|         159|   -7.045631|   -5.649984|   -5.800891|   -5.927192|
|         160|   -7.035402|   -5.653088|   -5.789978|   -5.925562|
|         161|   -7.025556|   -5.656039|   -5.779503|   -5.924072|
|         162|   -7.016099|   -5.658829|   -5.769463|   -5.922719|
|         163|   -7.007039|   -5.661454|   -5.759854|   -5.921497|
|         164|   -6.998390|   -5.663907|   -5.750681|   -5.920402|
|         165|   -6.990211|   -5.666194|   -5.742009|   -5.919425|
|         166|   -6.982470|   -5.668302|   -5.733196|   -5.918563|
|         167|   -6.975193|   -5.670223|   -5.722991|   -5.917812|
|         168|   -6.968281|   -5.671973|   -5.713458|   -5.917140|
|         169|   -6.961756|   -5.673551|   -5.704315|   -5.916562|
|         170|   -6.955773|   -5.674952|   -5.695710|   -5.916051|
|         171|   -6.950258|   -5.676169|   -5.687565|   -5.915605|
|         172|   -6.945244|   -5.677192|   -5.679919|   -5.915207|
|         173|   -6.940707|   -5.678007|   -5.672734|   -5.914848|
|         174|   -6.936653|   -5.678605|   -5.666009|   -5.914512|
|         175|   -6.933074|   -5.678976|   -5.659735|   -5.914189|
|         176|   -6.929985|   -5.679113|   -5.653928|   -5.913866|
|         177|   -6.927368|   -5.679006|   -5.648572|   -5.913530|
|         178|   -6.925213|   -5.678650|   -5.643649|   -5.913170|
|         179|   -6.923512|   -5.678046|   -5.639146|   -5.912774|
|         180|   -6.922254|   -5.677197|   -5.635049|   -5.912330|
|         181|   -6.921434|   -5.676110|   -5.631352|   -5.911827|
|         182|   -6.921038|   -5.674795|   -5.628038|   -5.911257|
|         183|   -6.921059|   -5.673266|   -5.625099|   -5.910608|
|         184|   -6.921482|   -5.671535|   -5.622520|   -5.909873|
|         185|   -6.922289|   -5.669619|   -5.620286|   -5.909042|
|         186|   -6.923464|   -5.667533|   -5.618382|   -5.908108|
|         187|   -6.924989|   -5.665295|   -5.616790|   -5.907064|
|         188|   -6.926847|   -5.662923|   -5.615494|   -5.905904|
|         189|   -6.929020|   -5.660437|   -5.614474|   -5.904623|
|         190|   -6.931490|   -5.657856|   -5.613674|   -5.903216|
|         191|   -6.934235|   -5.655197|   -5.613124|   -5.901681|
|         192|   -6.937239|   -5.652479|   -5.612804|   -5.900013|
|         193|   -6.940480|   -5.649718|   -5.612695|   -5.898213|
|         194|   -6.943942|   -5.646929|   -5.612782|   -5.896279|
|         195|   -6.947603|   -5.644126|   -5.613050|   -5.894210|
|         196|   -6.951439|   -5.641323|   -5.613477|   -5.892009|
|         197|   -6.955432|   -5.638535|   -5.614041|   -5.889676|
|         198|   -6.959585|   -5.635770|   -5.614760|   -5.887214|
|         199|   -6.963845|   -5.633037|   -5.615580|   -5.884627|
|         200|   -6.968216|   -5.630346|   -5.616512|   -5.881916|
|         201|   -6.972669|   -5.627707|   -5.617527|   -5.879088|
|         202|   -6.977194|   -5.625128|   -5.618619|   -5.876146|
|         203|   -6.981770|   -5.622617|   -5.619773|   -5.873096|
|         204|   -6.986385|   -5.620180|   -5.620980|   -5.869945|
|         205|   -6.991022|   -5.617823|   -5.622227|   -5.866699|
|         206|   -6.995666|   -5.615551|   -5.623502|   -5.863364|
|         207|   -7.000308|   -5.613367|   -5.624798|   -5.859949|
|         208|   -7.004931|   -5.611273|   -5.626107|   -5.856461|
|         209|   -7.009526|   -5.609273|   -5.627419|   -5.852908|
|         210|   -7.014078|   -5.607367|   -5.628725|   -5.849299|
|         211|   -7.018584|   -5.605557|   -5.630018|   -5.845642|
|         212|   -7.023038|   -5.603841|   -5.631295|   -5.841947|
|         213|   -7.027429|   -5.602216|   -5.632545|   -5.838222|
|         214|   -7.031751|   -5.600680|   -5.633766|   -5.834477|
|         215|   -7.036004|   -5.599232|   -5.634955|   -5.830720|
|         216|   -7.040186|   -5.597868|   -5.636115|   -5.826960|
|         217|   -7.044294|   -5.596585|   -5.637242|   -5.823207|
|         218|   -7.048325|   -5.595379|   -5.638333|   -5.819469|
|         219|   -7.052280|   -5.594244|   -5.639386|   -5.815754|
|         220|   -7.056157|   -5.593172|   -5.640400|   -5.812069|
|         221|   -7.059957|   -5.592158|   -5.641372|   -5.808423|
|         222|   -7.063679|   -5.591195|   -5.642304|   -5.804821|
|         223|   -7.067327|   -5.590274|   -5.643195|   -5.801271|
|         224|   -7.070902|   -5.589390|   -5.644046|   -5.797777|
|         225|   -7.074407|   -5.588535|   -5.644860|   -5.794344|
|         226|   -7.077845|   -5.587702|   -5.645638|   -5.790976|
|         227|   -7.081220|   -5.586884|   -5.646384|   -5.787677|
|         228|   -7.084536|   -5.586073|   -5.647099|   -5.784450|
|         229|   -7.087796|   -5.585264|   -5.647788|   -5.781295|
|         230|   -7.091006|   -5.584449|   -5.648453|   -5.778214|
|         231|   -7.094171|   -5.583620|   -5.649100|   -5.775208|
|         232|   -7.097296|   -5.582771|   -5.649732|   -5.772277|
|         233|   -7.100387|   -5.581896|   -5.650354|   -5.769421|
|         234|   -7.103452|   -5.580987|   -5.650973|   -5.766638|
|         235|   -7.106497|   -5.580039|   -5.651595|   -5.763927|
|         236|   -7.109531|   -5.579046|   -5.652225|   -5.761287|
|         237|   -7.112564|   -5.578000|   -5.652873|   -5.758717|
|         238|   -7.115605|   -5.576895|   -5.653546|   -5.756215|
|         239|   -7.118664|   -5.575725|   -5.654253|   -5.753780|
|         240|   -7.121754|   -5.574483|   -5.655005|   -5.751411|
|         241|   -7.124885|   -5.573162|   -5.655812|   -5.749106|
|         242|   -7.128071|   -5.571756|   -5.656685|   -5.746864|
|         243|   -7.131324|   -5.570259|   -5.657637|   -5.744686|
|         244|   -7.134660|   -5.568665|   -5.658679|   -5.742569|
|         245|   -7.138090|   -5.566969|   -5.659823|   -5.740515|
|         246|   -7.141632|   -5.565165|   -5.661083|   -5.738523|
|         247|   -7.145299|   -5.563249|   -5.662473|   -5.736593|
|         248|   -7.149105|   -5.561217|   -5.664005|   -5.734725|
|         249|   -7.153067|   -5.559066|   -5.665693|   -5.732921|
|         250|   -7.157199|   -5.556796|   -5.667551|   -5.731180|
|         251|   -7.161516|   -5.554404|   -5.669593|   -5.729503|
|         252|   -7.166034|   -5.551891|   -5.671832|   -5.727890|
|         253|   -7.170768|   -5.549260|   -5.674281|   -5.726343|
|         254|   -7.175732|   -5.546513|   -5.676954|   -5.724862|
|         255|   -7.180942|   -5.543656|   -5.679862|   -5.723447|
|         256|   -7.186412|   -5.540693|   -5.683019|   -5.722099|
|         257|   -7.192157|   -5.537632|   -5.686435|   -5.720818|
|         258|   -7.198190|   -5.534482|   -5.690122|   -5.719604|
|         259|   -7.204527|   -5.531251|   -5.694090|   -5.718457|
|         260|   -7.211180|   -5.527949|   -5.698348|   -5.717378|
|         261|   -7.218164|   -5.524587|   -5.702906|   -5.716366|
|         262|   -7.225493|   -5.521175|   -5.707772|   -5.715421|
|         263|   -7.233179|   -5.517725|   -5.712952|   -5.714542|
|         264|   -7.241235|   -5.514248|   -5.718453|   -5.713729|
|         265|   -7.249675|   -5.510757|   -5.724281|   -5.712983|
|         266|   -7.258509|   -5.507262|   -5.730438|   -5.712301|
|         267|   -7.267750|   -5.503774|   -5.736928|   -5.711683|
|         268|   -7.277410|   -5.500305|   -5.743753|   -5.711129|
|         269|   -7.287500|   -5.496864|   -5.750913|   -5.710638|
|         270|   -7.298028|   -5.493462|   -5.758407|   -5.710208|
|         271|   -7.309005|   -5.490108|   -5.766232|   -5.709839|
|         272|   -7.320438|   -5.486810|   -5.774383|   -5.709530|
|         273|   -7.332333|   -5.483577|   -5.782853|   -5.709278|
|         274|   -7.344693|   -5.480416|   -5.791631|   -5.709084|
|         275|   -7.357520|   -5.477332|   -5.800706|   -5.708946|
|         276|   -7.370811|   -5.474332|   -5.810061|   -5.708862|
|         277|   -7.384560|   -5.471420|   -5.819677|   -5.708831|
|         278|   -7.398757|   -5.468601|   -5.829535|   -5.708850|
|         279|   -7.413381|   -5.465879|   -5.839596|   -5.708919|
|         280|   -7.428415|   -5.463257|   -5.849838|   -5.709035|
|         281|   -7.443817|   -5.460738|   -5.860217|   -5.709197|
|         282|   -7.459545|   -5.458323|   -5.870692|   -5.709403|
|         283|   -7.475539|   -5.456014|   -5.881212|   -5.709650|
|         284|   -7.491725|   -5.453812|   -5.891725|   -5.709937|
|         285|   -7.508013|   -5.451718|   -5.902171|   -5.710261|
|         286|   -7.524291|   -5.449729|   -5.912489|   -5.710620|
|         287|   -7.540427|   -5.447846|   -5.922609|   -5.711012|
|         288|   -7.556265|   -5.446068|   -5.932460|   -5.711435|
|         289|   -7.571627|   -5.444394|   -5.941967|   -5.711885|
|         290|   -7.586319|   -5.442822|   -5.951057|   -5.712360|
|         291|   -7.600131|   -5.441351|   -5.959653|   -5.712859|
|         292|   -7.612842|   -5.439977|   -5.967685|   -5.713379|
|         293|   -7.624235|   -5.438700|   -5.975090|   -5.713919|
|         294|   -7.634108|   -5.437517|   -5.981809|   -5.714477|
|         295|   -7.642288|   -5.436426|   -5.987801|   -5.715050|
|         296|   -7.648642|   -5.435423|   -5.993031|   -5.715638|
|         297|   -7.653087|   -5.434506|   -5.997482|   -5.716239|
|         298|   -7.655603|   -5.433672|   -6.001148|   -5.716851|
|         299|   -7.656228|   -5.432917|   -6.004037|   -5.717474|
|         300|   -7.655060|   -5.432240|   -6.006171|   -5.718105|
|         301|   -7.652241|   -5.431637|   -6.007579|   -5.718743|
|         302|   -7.647949|   -5.431107|   -6.008303|   -5.719388|
|         303|   -7.642380|   -5.430648|   -6.008392|   -5.720040|
|         304|   -7.635734|   -5.430256|   -6.007897|   -5.720696|
|         305|   -7.628210|   -5.429930|   -6.006871|   -5.721356|
|         306|   -7.619988|   -5.429669|   -6.005372|   -5.722021|
|         307|   -7.611234|   -5.429470|   -6.003453|   -5.722688|
|         308|   -7.602089|   -5.429332|   -6.001162|   -5.723359|
|         309|   -7.592672|   -5.429254|   -5.998541|   -5.724032|
|         310|   -7.583084|   -5.429233|   -5.995636|   -5.724707|
|         311|   -7.573410|   -5.429269|   -5.992483|   -5.725385|
|         312|   -7.563714|   -5.429360|   -5.989115|   -5.726064|
|         313|   -7.554050|   -5.429505|   -5.985560|   -5.726744|
|         314|   -7.544456|   -5.429703|   -5.981843|   -5.727426|
|         315|   -7.534959|   -5.429953|   -5.977979|   -5.728110|
|         316|   -7.525578|   -5.430254|   -5.973983|   -5.728794|
|         317|   -7.516325|   -5.430604|   -5.969869|   -5.729479|
|         318|   -7.507205|   -5.431003|   -5.965643|   -5.730164|
|         319|   -7.498221|   -5.431447|   -5.961314|   -5.730850|
|         320|   -7.489372|   -5.431935|   -5.956885|   -5.731536|
|         321|   -7.480656|   -5.432466|   -5.952363|   -5.732221|
|         322|   -7.472069|   -5.433035|   -5.947750|   -5.732906|
|         323|   -7.463609|   -5.433642|   -5.943054|   -5.733589|
|         324|   -7.455273|   -5.434281|   -5.938276|   -5.734270|
|         325|   -7.447056|   -5.434950|   -5.933421|   -5.734948|
|         326|   -7.438952|   -5.435645|   -5.928491|   -5.735622|
|         327|   -7.430956|   -5.436363|   -5.923489|   -5.736292|
|         328|   -7.423064|   -5.437098|   -5.918418|   -5.736955|
|         329|   -7.415269|   -5.437848|   -5.913279|   -5.737612|
|         330|   -7.407566|   -5.438605|   -5.908077|   -5.738259|
|         331|   -7.399947|   -5.439365|   -5.902814|   -5.738895|
|         332|   -7.392428|   -5.440119|   -5.897421|   -5.739520|
|         333|   -7.385062|   -5.440856|   -5.891755|   -5.740132|
|         334|   -7.377752|   -5.441580|   -5.886185|   -5.740724|
|         335|   -7.370423|   -5.442285|   -5.880503|   -5.741300|
|         336|   -7.363164|   -5.442961|   -5.874766|   -5.741854|
|         337|   -7.355933|   -5.443602|   -5.868945|   -5.742386|
|         338|   -7.348733|   -5.444201|   -5.863062|   -5.742894|
|         339|   -7.341547|   -5.444749|   -5.857106|   -5.743376|
|         340|   -7.334366|   -5.445240|   -5.851074|   -5.743829|
|         341|   -7.327178|   -5.445668|   -5.844961|   -5.744252|
|         342|   -7.319975|   -5.446026|   -5.838767|   -5.744642|
|         343|   -7.312745|   -5.446307|   -5.832487|   -5.744999|
|         344|   -7.305480|   -5.446506|   -5.826118|   -5.745319|
|         345|   -7.298171|   -5.446617|   -5.819657|   -5.745601|
|         346|   -7.290810|   -5.446634|   -5.813101|   -5.745844|
|         347|   -7.283391|   -5.446550|   -5.806451|   -5.746046|
|         348|   -7.275909|   -5.446362|   -5.799704|   -5.746206|
|         349|   -7.268359|   -5.446063|   -5.792864|   -5.746322|
|         350|   -7.260741|   -5.445650|   -5.785931|   -5.746393|
|         351|   -7.253054|   -5.445118|   -5.778911|   -5.746419|
|         352|   -7.245302|   -5.444463|   -5.771810|   -5.746400|
|         353|   -7.237486|   -5.443682|   -5.764637|   -5.746335|
|         354|   -7.229614|   -5.442774|   -5.757400|   -5.746226|
|         355|   -7.221690|   -5.441735|   -5.750110|   -5.746072|
|         356|   -7.213725|   -5.440567|   -5.742780|   -5.745874|
|         357|   -7.205727|   -5.439268|   -5.735424|   -5.745636|
|         358|   -7.197707|   -5.437840|   -5.728057|   -5.745358|
|         359|   -7.189676|   -5.436286|   -5.720693|   -5.745043|
|         360|   -7.181646|   -5.434609|   -5.713350|   -5.744694|
|         361|   -7.173631|   -5.432815|   -5.706045|   -5.744315|
|         362|   -7.165643|   -5.430910|   -5.698797|   -5.743908|
|         363|   -7.157696|   -5.428902|   -5.691625|   -5.743478|
|         364|   -7.149804|   -5.426801|   -5.684549|   -5.743030|
|         365|   -7.141979|   -5.424620|   -5.677591|   -5.742567|
|         366|   -7.134236|   -5.422371|   -5.670772|   -5.742093|
|         367|   -7.126587|   -5.420068|   -5.664116|   -5.741614|
|         368|   -7.119048|   -5.417726|   -5.657649|   -5.741134|
|         369|   -7.111630|   -5.415362|   -5.651392|   -5.740658|
|         370|   -7.104345|   -5.412991|   -5.645364|   -5.740190|
|         371|   -7.097203|   -5.410628|   -5.639583|   -5.739734|
|         372|   -7.090212|   -5.408292|   -5.634062|   -5.739296|
|         373|   -7.083384|   -5.405995|   -5.628810|   -5.738879|
|         374|   -7.076722|   -5.403752|   -5.623833|   -5.738488|
|         375|   -7.070239|   -5.401575|   -5.619137|   -5.738126|
|         376|   -7.063939|   -5.399477|   -5.614723|   -5.737796|
|         377|   -7.057830|   -5.397470|   -5.610592|   -5.737502|
|         378|   -7.051917|   -5.395561|   -5.606742|   -5.737246|
|         379|   -7.046205|   -5.393760|   -5.603171|   -5.737031|
|         380|   -7.040698|   -5.392074|   -5.599876|   -5.736857|
|         381|   -7.035402|   -5.390507|   -5.596852|   -5.736727|
|         382|   -7.030320|   -5.389062|   -5.594093|   -5.736642|
|         383|   -7.025457|   -5.387743|   -5.591590|   -5.736602|
|         384|   -7.020819|   -5.386563|   -5.589336|   -5.736607|
|         385|   -7.016408|   -5.385539|   -5.587314|   -5.736658|
|         386|   -7.012217|   -5.384658|   -5.585512|   -5.736756|
|         387|   -7.008233|   -5.383893|   -5.583925|   -5.736902|
|         388|   -7.004440|   -5.383216|   -5.582545|   -5.737096|
|         389|   -7.000838|   -5.382605|   -5.581353|   -5.737338|
|         390|   -6.997428|   -5.382053|   -5.580356|   -5.737628|
|         391|   -6.994214|   -5.381558|   -5.579559|   -5.737966|
|         392|   -6.991204|   -5.381119|   -5.578953|   -5.738353|
|         393|   -6.988413|   -5.380727|   -5.578350|   -5.738790|
|         394|   -6.985822|   -5.380389|   -5.577936|   -5.739271|
|         395|   -6.983418|   -5.380097|   -5.577689|   -5.739802|
|         396|   -6.981233|   -5.379841|   -5.577627|   -5.740380|
|         397|   -6.979248|   -5.379608|   -5.577729|   -5.741006|
|         398|   -6.977463|   -5.379396|   -5.577993|   -5.741680|
|         399|   -6.975872|   -5.379200|   -5.578405|   -5.742401|
|         400|   -6.974474|   -5.379022|   -5.578958|   -5.743169|
|         401|   -6.973268|   -5.378862|   -5.579649|   -5.743984|
|         402|   -6.972250|   -5.378719|   -5.580470|   -5.744844|
|         403|   -6.971412|   -5.378591|   -5.581408|   -5.745749|
|         404|   -6.970759|   -5.378473|   -5.582472|   -5.746699|
|         405|   -6.970288|   -5.378360|   -5.583662|   -5.747693|
|         406|   -6.969996|   -5.378248|   -5.584969|   -5.748729|
|         407|   -6.969881|   -5.378138|   -5.586382|   -5.749806|
|         408|   -6.969948|   -5.378032|   -5.587900|   -5.750923|
|         409|   -6.970201|   -5.377935|   -5.589528|   -5.752078|
|         410|   -6.970639|   -5.377841|   -5.591247|   -5.753270|
|         411|   -6.971261|   -5.377758|   -5.593063|   -5.754496|
|         412|   -6.972057|   -5.377675|   -5.594992|   -5.755755|
|         413|   -6.973023|   -5.377579|   -5.596998|   -5.757046|
|         414|   -6.974155|   -5.377463|   -5.599074|   -5.758367|
|         415|   -6.975455|   -5.377331|   -5.601212|   -5.759717|
|         416|   -6.976930|   -5.377190|   -5.603420|   -5.761092|
|         417|   -6.978587|   -5.377044|   -5.605709|   -5.762492|
|         418|   -6.980421|   -5.376886|   -5.608083|   -5.763917|
|         419|   -6.982427|   -5.376706|   -5.610525|   -5.765364|
|         420|   -6.984594|   -5.376498|   -5.613020|   -5.766833|
|         421|   -6.986918|   -5.376264|   -5.615562|   -5.768321|
|         422|   -6.989399|   -5.376010|   -5.618148|   -5.769828|
|         423|   -6.992043|   -5.375741|   -5.620776|   -5.771351|
|         424|   -6.994853|   -5.375460|   -5.623449|   -5.772887|
|         425|   -6.997833|   -5.375170|   -5.626165|   -5.774436|
|         426|   -7.000985|   -5.374873|   -5.628923|   -5.775995|
|         427|   -7.004308|   -5.374574|   -5.631721|   -5.777562|
|         428|   -7.007799|   -5.374270|   -5.634550|   -5.779135|
|         429|   -7.011455|   -5.373963|   -5.637403|   -5.780713|
|         430|   -7.015270|   -5.373651|   -5.640287|   -5.782293|
|         431|   -7.019236|   -5.373324|   -5.643189|   -5.783875|
|         432|   -7.023348|   -5.372980|   -5.646094|   -5.785457|
|         433|   -7.027602|   -5.372619|   -5.648994|   -5.787038|
|         434|   -7.032000|   -5.372246|   -5.651890|   -5.788615|
|         435|   -7.036549|   -5.371869|   -5.654783|   -5.790187|
|         436|   -7.041258|   -5.371493|   -5.657670|   -5.791751|
|         437|   -7.046132|   -5.371122|   -5.660548|   -5.793306|
|         438|   -7.051176|   -5.370761|   -5.663419|   -5.794851|
|         439|   -7.056383|   -5.370404|   -5.666288|   -5.796384|
|         440|   -7.061746|   -5.370044|   -5.669139|   -5.797905|
|         441|   -7.067260|   -5.369678|   -5.671961|   -5.799412|
|         442|   -7.072921|   -5.369307|   -5.674754|   -5.800904|
|         443|   -7.078729|   -5.368934|   -5.677519|   -5.802380|
|         444|   -7.084687|   -5.368563|   -5.680256|   -5.803837|
|         445|   -7.090801|   -5.368201|   -5.682965|   -5.805275|
|         446|   -7.097078|   -5.367853|   -5.685645|   -5.806691|
|         447|   -7.103520|   -5.367522|   -5.688295|   -5.808085|
|         448|   -7.110127|   -5.367210|   -5.690915|   -5.809454|
|         449|   -7.116891|   -5.366916|   -5.693512|   -5.810798|
|         450|   -7.123802|   -5.366631|   -5.696076|   -5.812117|
|         451|   -7.130851|   -5.366353|   -5.698596|   -5.813410|
|         452|   -7.138028|   -5.366083|   -5.701070|   -5.814677|
|         453|   -7.145325|   -5.365823|   -5.703504|   -5.815916|
|         454|   -7.152731|   -5.365567|   -5.705891|   -5.817127|
|         455|   -7.160248|   -5.365316|   -5.708216|   -5.818312|
|         456|   -7.167882|   -5.365068|   -5.710486|   -5.819471|
|         457|   -7.175638|   -5.364825|   -5.712717|   -5.820603|
|         458|   -7.183517|   -5.364592|   -5.714914|   -5.821709|
|         459|   -7.191522|   -5.364377|   -5.717077|   -5.822787|
|         460|   -7.199652|   -5.364185|   -5.719202|   -5.823838|
|         461|   -7.207907|   -5.364020|   -5.721289|   -5.824860|
|         462|   -7.216285|   -5.363885|   -5.723341|   -5.825853|
|         463|   -7.224777|   -5.363782|   -5.725360|   -5.826817|
|         464|   -7.233372|   -5.363710|   -5.727346|   -5.827751|
|         465|   -7.242060|   -5.363667|   -5.729295|   -5.828655|
|         466|   -7.250820|   -5.363654|   -5.731214|   -5.829528|
|         467|   -7.259637|   -5.363660|   -5.733092|   -5.830371|
|         468|   -7.268493|   -5.363683|   -5.734910|   -5.831185|
|         469|   -7.277374|   -5.363722|   -5.736673|   -5.831969|
|         470|   -7.286267|   -5.363782|   -5.738373|   -5.832724|
|         471|   -7.295173|   -5.363864|   -5.740018|   -5.833451|
|         472|   -7.304102|   -5.363966|   -5.741594|   -5.834150|
|         473|   -7.313062|   -5.364089|   -5.743093|   -5.834823|
|         474|   -7.322059|   -5.364234|   -5.744527|   -5.835471|
|         475|   -7.331085|   -5.364404|   -5.745901|   -5.836094|
|         476|   -7.340126|   -5.364602|   -5.747216|   -5.836693|
|         477|   -7.349168|   -5.364835|   -5.748472|   -5.837267|
|         478|   -7.358191|   -5.365106|   -5.749670|   -5.837818|
|         479|   -7.367186|   -5.365418|   -5.750814|   -5.838345|
|         480|   -7.376117|   -5.365773|   -5.751906|   -5.838847|
|         481|   -7.384932|   -5.366170|   -5.752945|   -5.839325|
|         482|   -7.393572|   -5.366608|   -5.753932|   -5.839778|
|         483|   -7.401970|   -5.367086|   -5.754857|   -5.840205|
|         484|   -7.410040|   -5.367594|   -5.755737|   -5.840607|
|         485|   -7.417723|   -5.368125|   -5.756554|   -5.840984|
|         486|   -7.424944|   -5.368672|   -5.757293|   -5.841337|
|         487|   -7.431640|   -5.369235|   -5.757943|   -5.841666|
|         488|   -7.437756|   -5.369818|   -5.758521|   -5.841972|
|         489|   -7.443238|   -5.370416|   -5.759002|   -5.842255|
|         490|   -7.448074|   -5.371030|   -5.759386|   -5.842517|
|         491|   -7.452250|   -5.371666|   -5.759681|   -5.842757|
|         492|   -7.455733|   -5.372326|   -5.759887|   -5.842976|
|         493|   -7.458549|   -5.373023|   -5.760012|   -5.843171|
|         494|   -7.460642|   -5.373769|   -5.760046|   -5.843344|
|         495|   -7.462043|   -5.374566|   -5.759992|   -5.843492|
|         496|   -7.462736|   -5.375418|   -5.759859|   -5.843615|
|         497|   -7.462817|   -5.376343|   -5.759671|   -5.843710|
|         498|   -7.462177|   -5.377337|   -5.759429|   -5.843777|
|         499|   -7.460868|   -5.378380|   -5.759177|   -5.843817|
|         500|   -7.458973|   -5.379460|   -5.758879|   -5.843830|
|         501|   -7.456565|   -5.380582|   -5.758548|   -5.843814|
|         502|   -7.453500|   -5.381735|   -5.758194|   -5.843771|
|         503|   -7.449890|   -5.382924|   -5.757811|   -5.843698|
|         504|   -7.445793|   -5.384160|   -5.757418|   -5.843595|
|         505|   -7.441149|   -5.385430|   -5.756958|   -5.843464|
|         506|   -7.436155|   -5.386731|   -5.756456|   -5.843303|
|         507|   -7.430898|   -5.388070|   -5.755941|   -5.843112|
|         508|   -7.425280|   -5.389443|   -5.755391|   -5.842893|
|         509|   -7.419459|   -5.390844|   -5.754822|   -5.842644|
|         510|   -7.413458|   -5.392282|   -5.754243|   -5.842364|
|         511|   -7.407192|   -5.393775|   -5.753626|   -5.842051|
|         512|   -7.400803|   -5.395332|   -5.752993|   -5.841703|
|         513|   -7.394278|   -5.396955|   -5.752341|   -5.841320|
|         514|   -7.387661|   -5.398635|   -5.751662|   -5.840899|
|         515|   -7.381041|   -5.400370|   -5.750996|   -5.840439|
|         516|   -7.374355|   -5.402148|   -5.750319|   -5.839941|
|         517|   -7.367747|   -5.403955|   -5.749635|   -5.839404|
|         518|   -7.361186|   -5.405785|   -5.748963|   -5.838829|
|         519|   -7.354711|   -5.407617|   -5.748302|   -5.838217|
|         520|   -7.348366|   -5.409440|   -5.747644|   -5.837567|
|         521|   -7.342118|   -5.411258|   -5.746972|   -5.836880|
|         522|   -7.335995|   -5.413077|   -5.746274|   -5.836156|
|         523|   -7.329945|   -5.414879|   -5.745512|   -5.835396|
|         524|   -7.324050|   -5.416705|   -5.744660|   -5.834598|
|         525|   -7.318180|   -5.418571|   -5.743719|   -5.833761|
|         526|   -7.312433|   -5.420483|   -5.742762|   -5.832886|
|         527|   -7.306811|   -5.422425|   -5.741946|   -5.831974|
|         528|   -7.301367|   -5.424382|   -5.741267|   -5.831025|
|         529|   -7.296082|   -5.426326|   -5.740407|   -5.830040|
|         530|   -7.290967|   -5.428266|   -5.739437|   -5.829018|
|         531|   -7.285970|   -5.430205|   -5.738511|   -5.827960|
|         532|   -7.281135|   -5.432137|   -5.737576|   -5.826868|
|         533|   -7.276443|   -5.434040|   -5.736613|   -5.825743|
|         534|   -7.271919|   -5.435899|   -5.735607|   -5.824587|
|         535|   -7.267554|   -5.437704|   -5.734565|   -5.823403|
|         536|   -7.263350|   -5.439451|   -5.733496|   -5.822191|
|         537|   -7.259289|   -5.441148|   -5.732385|   -5.820952|
|         538|   -7.255358|   -5.442801|   -5.731224|   -5.819686|
|         539|   -7.251540|   -5.444428|   -5.729987|   -5.818394|
|         540|   -7.247830|   -5.446036|   -5.728684|   -5.817075|
|         541|   -7.244232|   -5.447629|   -5.727302|   -5.815731|
|         542|   -7.240758|   -5.449211|   -5.725844|   -5.814363|
|         543|   -7.237402|   -5.450770|   -5.724331|   -5.812972|
|         544|   -7.234180|   -5.452296|   -5.722759|   -5.811559|
|         545|   -7.231091|   -5.453777|   -5.721122|   -5.810128|
|         546|   -7.228142|   -5.455199|   -5.719454|   -5.808680|
|         547|   -7.225331|   -5.456545|   -5.717739|   -5.807218|
|         548|   -7.222664|   -5.457811|   -5.715993|   -5.805746|
|         549|   -7.220121|   -5.458999|   -5.714205|   -5.804264|
|         550|   -7.217691|   -5.460123|   -5.712373|   -5.802774|
|         551|   -7.215358|   -5.461202|   -5.710477|   -5.801277|
|         552|   -7.213112|   -5.462258|   -5.708507|   -5.799775|
|         553|   -7.210954|   -5.463314|   -5.706465|   -5.798267|
|         554|   -7.208883|   -5.464384|   -5.704352|   -5.796755|
|         555|   -7.206906|   -5.465478|   -5.702181|   -5.795240|
|         556|   -7.205033|   -5.466579|   -5.699993|   -5.793724|
|         557|   -7.203278|   -5.467665|   -5.697792|   -5.792209|
|         558|   -7.201640|   -5.468732|   -5.695595|   -5.790696|
|         559|   -7.200110|   -5.469779|   -5.693420|   -5.789185|
|         560|   -7.198672|   -5.470811|   -5.691265|   -5.787679|
|         561|   -7.197322|   -5.471824|   -5.689152|   -5.786177|
|         562|   -7.196069|   -5.472821|   -5.687054|   -5.784682|
|         563|   -7.194907|   -5.473797|   -5.684965|   -5.783194|
|         564|   -7.193834|   -5.474762|   -5.682896|   -5.781713|
|         565|   -7.192840|   -5.475728|   -5.680845|   -5.780241|
|         566|   -7.191922|   -5.476704|   -5.678814|   -5.778777|
|         567|   -7.191076|   -5.477702|   -5.676791|   -5.777321|
|         568|   -7.190301|   -5.478726|   -5.674790|   -5.775874|
|         569|   -7.189597|   -5.479769|   -5.672817|   -5.774436|
|         570|   -7.188966|   -5.480817|   -5.670887|   -5.773007|
|         571|   -7.188411|   -5.481864|   -5.669003|   -5.771590|
|         572|   -7.187927|   -5.482910|   -5.667162|   -5.770184|
|         573|   -7.187510|   -5.483938|   -5.665375|   -5.768791|
|         574|   -7.187162|   -5.484944|   -5.663636|   -5.767412|
|         575|   -7.186882|   -5.485930|   -5.661942|   -5.766047|
|         576|   -7.186665|   -5.486899|   -5.660289|   -5.764697|
|         577|   -7.186504|   -5.487857|   -5.658670|   -5.763363|
|         578|   -7.186395|   -5.488810|   -5.657081|   -5.762045|
|         579|   -7.186337|   -5.489766|   -5.655514|   -5.760745|
|         580|   -7.186329|   -5.490732|   -5.653977|   -5.759461|
|         581|   -7.186362|   -5.491717|   -5.652469|   -5.758195|
|         582|   -7.186436|   -5.492719|   -5.650991|   -5.756947|
|         583|   -7.186555|   -5.493727|   -5.649572|   -5.755718|
|         584|   -7.186724|   -5.494729|   -5.648214|   -5.754510|
|         585|   -7.186947|   -5.495718|   -5.646921|   -5.753322|
|         586|   -7.187227|   -5.496692|   -5.645693|   -5.752157|
|         587|   -7.187561|   -5.497653|   -5.644528|   -5.751014|
|         588|   -7.187949|   -5.498606|   -5.643426|   -5.749894|
|         589|   -7.188390|   -5.499560|   -5.642381|   -5.748798|
|         590|   -7.188883|   -5.500517|   -5.641407|   -5.747726|
|         591|   -7.189429|   -5.501476|   -5.640505|   -5.746678|
|         592|   -7.190034|   -5.502432|   -5.639677|   -5.745656|
|         593|   -7.190704|   -5.503386|   -5.638924|   -5.744660|
|         594|   -7.191440|   -5.504339|   -5.638244|   -5.743690|
|         595|   -7.192241|   -5.505290|   -5.637638|   -5.742748|
|         596|   -7.193111|   -5.506243|   -5.637113|   -5.741832|
|         597|   -7.194049|   -5.507199|   -5.636663|   -5.740944|
|         598|   -7.195053|   -5.508151|   -5.636304|   -5.740084|
|         599|   -7.196129|   -5.509095|   -5.636041|   -5.739253|
|         600|   -7.197284|   -5.510028|   -5.635875|   -5.738450|
|         601|   -7.198520|   -5.510956|   -5.635809|   -5.737676|
|         602|   -7.199838|   -5.511880|   -5.635838|   -5.736931|
|         603|   -7.201241|   -5.512803|   -5.635957|   -5.736214|
|         604|   -7.202730|   -5.513719|   -5.636178|   -5.735526|
|         605|   -7.204309|   -5.514633|   -5.636497|   -5.734866|
|         606|   -7.205983|   -5.515547|   -5.636906|   -5.734234|
|         607|   -7.207756|   -5.516456|   -5.637415|   -5.733631|
|         608|   -7.209632|   -5.517353|   -5.638038|   -5.733055|
|         609|   -7.211618|   -5.518236|   -5.638773|   -5.732507|
|         610|   -7.213719|   -5.519105|   -5.639618|   -5.731986|
|         611|   -7.215937|   -5.519964|   -5.640569|   -5.731492|
|         612|   -7.218271|   -5.520814|   -5.641622|   -5.731025|
|         613|   -7.220723|   -5.521655|   -5.642778|   -5.730585|
|         614|   -7.223297|   -5.522490|   -5.644033|   -5.730170|
|         615|   -7.225993|   -5.523324|   -5.645399|   -5.729779|
|         616|   -7.228814|   -5.524158|   -5.646876|   -5.729414|
|         617|   -7.231764|   -5.524988|   -5.648460|   -5.729071|
|         618|   -7.234846|   -5.525809|   -5.650157|   -5.728752|
|         619|   -7.238069|   -5.526616|   -5.651976|   -5.728455|
|         620|   -7.241437|   -5.527403|   -5.653922|   -5.728180|
|         621|   -7.244954|   -5.528165|   -5.655999|   -5.727925|
|         622|   -7.248625|   -5.528903|   -5.658207|   -5.727691|
|         623|   -7.252451|   -5.529623|   -5.660541|   -5.727475|
|         624|   -7.256430|   -5.530324|   -5.663000|   -5.727278|
|         625|   -7.260564|   -5.531011|   -5.665581|   -5.727098|
|         626|   -7.264857|   -5.531687|   -5.668286|   -5.726933|
|         627|   -7.269308|   -5.532353|   -5.671112|   -5.726784|
|         628|   -7.273922|   -5.533007|   -5.674061|   -5.726649|
|         629|   -7.278701|   -5.533651|   -5.677136|   -5.726527|
|         630|   -7.283647|   -5.534281|   -5.680341|   -5.726417|
|         631|   -7.288763|   -5.534899|   -5.683673|   -5.726318|
|         632|   -7.294050|   -5.535502|   -5.687135|   -5.726229|
|         633|   -7.299513|   -5.536096|   -5.690724|   -5.726148|
|         634|   -7.305149|   -5.536678|   -5.694439|   -5.726075|
|         635|   -7.310963|   -5.537250|   -5.698280|   -5.726009|
|         636|   -7.316956|   -5.537814|   -5.702243|   -5.725948|
|         637|   -7.323128|   -5.538369|   -5.706327|   -5.725892|
|         638|   -7.329480|   -5.538919|   -5.710529|   -5.725839|
|         639|   -7.336014|   -5.539460|   -5.714851|   -5.725789|
|         640|   -7.342732|   -5.539997|   -5.719289|   -5.725741|
|         641|   -7.349629|   -5.540525|   -5.723843|   -5.725694|
|         642|   -7.356711|   -5.541046|   -5.728506|   -5.725647|
|         643|   -7.363982|   -5.541559|   -5.733287|   -5.725599|
|         644|   -7.371435|   -5.542065|   -5.738178|   -5.725551|
|         645|   -7.379076|   -5.542568|   -5.743182|   -5.725500|
|         646|   -7.386898|   -5.543067|   -5.748292|   -5.725448|
|         647|   -7.394908|   -5.543561|   -5.753509|   -5.725393|
|         648|   -7.403112|   -5.544054|   -5.758833|   -5.725335|
|         649|   -7.411504|   -5.544544|   -5.764260|   -5.725274|
|         650|   -7.420096|   -5.545034|   -5.769789|   -5.725209|
|         651|   -7.428887|   -5.545524|   -5.775420|   -5.725141|
|         652|   -7.437879|   -5.546014|   -5.781144|   -5.725069|
|         653|   -7.447081|   -5.546508|   -5.786968|   -5.724993|
|         654|   -7.456482|   -5.547007|   -5.792875|   -5.724914|
|         655|   -7.466093|   -5.547510|   -5.798876|   -5.724831|
|         656|   -7.475904|   -5.548020|   -5.804955|   -5.724744|
|         657|   -7.485921|   -5.548538|   -5.811116|   -5.724655|
|         658|   -7.496139|   -5.549064|   -5.817353|   -5.724562|
|         659|   -7.506555|   -5.549600|   -5.823661|   -5.724467|
|         660|   -7.517173|   -5.550148|   -5.830044|   -5.724370|
|         661|   -7.527978|   -5.550708|   -5.836484|   -5.724272|
|         662|   -7.538984|   -5.551283|   -5.842991|   -5.724171|
|         663|   -7.550167|   -5.551873|   -5.849549|   -5.724070|
|         664|   -7.561538|   -5.552481|   -5.856159|   -5.723969|
|         665|   -7.573073|   -5.553108|   -5.862811|   -5.723868|
|         666|   -7.584766|   -5.553756|   -5.869497|   -5.723768|
|         667|   -7.596607|   -5.554427|   -5.876213|   -5.723669|
|         668|   -7.608559|   -5.555122|   -5.882941|   -5.723572|
|         669|   -7.620618|   -5.555845|   -5.889687|   -5.723478|
|         670|   -7.632721|   -5.556596|   -5.896420|   -5.723386|
|         671|   -7.644869|   -5.557378|   -5.903147|   -5.723299|
|         672|   -7.656967|   -5.558191|   -5.909838|   -5.723215|
|         673|   -7.669008|   -5.559040|   -5.916497|   -5.723136|
|         674|   -7.680875|   -5.559925|   -5.923087|   -5.723063|
|         675|   -7.692541|   -5.560848|   -5.929613|   -5.722995|
|         676|   -7.703868|   -5.561810|   -5.936040|   -5.722933|
|         677|   -7.714806|   -5.562816|   -5.942362|   -5.722879|
|         678|   -7.725197|   -5.563864|   -5.948548|   -5.722831|
|         679|   -7.734965|   -5.564958|   -5.954589|   -5.722792|
|         680|   -7.743942|   -5.566098|   -5.960450|   -5.722760|
|         681|   -7.752039|   -5.567287|   -5.966123|   -5.722738|
|         682|   -7.759066|   -5.568525|   -5.971567|   -5.722724|
|         683|   -7.764947|   -5.569815|   -5.976776|   -5.722719|
|         684|   -7.769504|   -5.571158|   -5.981705|   -5.722724|
|         685|   -7.772696|   -5.572556|   -5.986346|   -5.722739|
|         686|   -7.774380|   -5.574009|   -5.990659|   -5.722764|
|         687|   -7.774571|   -5.575519|   -5.994641|   -5.722800|
|         688|   -7.773188|   -5.577087|   -5.998248|   -5.722846|
|         689|   -7.770306|   -5.578715|   -6.001477|   -5.722903|
|         690|   -7.765929|   -5.580403|   -6.004292|   -5.722971|
|         691|   -7.760166|   -5.582151|   -6.006691|   -5.723050|
|         692|   -7.753111|   -5.583961|   -6.008659|   -5.723141|
|         693|   -7.744878|   -5.585832|   -6.010180|   -5.723242|
|         694|   -7.735621|   -5.587766|   -6.011254|   -5.723355|
|         695|   -7.725447|   -5.589763|   -6.011863|   -5.723480|
|         696|   -7.714525|   -5.591823|   -6.012019|   -5.723616|
|         697|   -7.702966|   -5.593946|   -6.011719|   -5.723764|
|         698|   -7.690904|   -5.596133|   -6.010976|   -5.723924|
|         699|   -7.678456|   -5.598383|   -6.009800|   -5.724095|
|         700|   -7.665713|   -5.600695|   -6.008196|   -5.724278|
|         701|   -7.652779|   -5.603072|   -6.006185|   -5.724472|
|         702|   -7.639725|   -5.605511|   -6.003783|   -5.724678|
|         703|   -7.626621|   -5.608014|   -6.001010|   -5.724896|
|         704|   -7.613532|   -5.610580|   -5.997892|   -5.725125|
|         705|   -7.600498|   -5.613207|   -5.994450|   -5.725365|
|         706|   -7.587564|   -5.615895|   -5.990713|   -5.725617|
|         707|   -7.574767|   -5.618647|   -5.986704|   -5.725880|
|         708|   -7.562130|   -5.621458|   -5.982448|   -5.726155|
|         709|   -7.549677|   -5.624328|   -5.977972|   -5.726441|
|         710|   -7.537426|   -5.627258|   -5.973304|   -5.726737|
|         711|   -7.525390|   -5.630244|   -5.968467|   -5.727045|
|         712|   -7.513581|   -5.633288|   -5.963485|   -5.727364|
|         713|   -7.502008|   -5.636389|   -5.958385|   -5.727695|
|         714|   -7.490675|   -5.639546|   -5.953188|   -5.728036|
|         715|   -7.479586|   -5.642756|   -5.947916|   -5.728388|
|         716|   -7.468746|   -5.646020|   -5.942589|   -5.728750|
|         717|   -7.458155|   -5.649338|   -5.937222|   -5.729124|
|         718|   -7.447814|   -5.652709|   -5.931830|   -5.729509|
|         719|   -7.437725|   -5.656131|   -5.926436|   -5.729904|
|         720|   -7.427882|   -5.659601|   -5.921054|   -5.730311|
|         721|   -7.418283|   -5.663116|   -5.915700|   -5.730728|
|         722|   -7.408927|   -5.666674|   -5.910384|   -5.731157|
|         723|   -7.399811|   -5.670274|   -5.905119|   -5.731597|
|         724|   -7.390932|   -5.673914|   -5.899915|   -5.732048|
|         725|   -7.382289|   -5.677593|   -5.894783|   -5.732510|
|         726|   -7.373879|   -5.681306|   -5.889733|   -5.732983|
|         727|   -7.365700|   -5.685054|   -5.884772|   -5.733468|
|         728|   -7.357750|   -5.688833|   -5.879909|   -5.733964|
|         729|   -7.350026|   -5.692643|   -5.875151|   -5.734472|
|         730|   -7.342526|   -5.696481|   -5.870505|   -5.734991|
|         731|   -7.335247|   -5.700345|   -5.865978|   -5.735523|
|         732|   -7.328186|   -5.704230|   -5.861575|   -5.736066|
|         733|   -7.321340|   -5.708134|   -5.857300|   -5.736621|
|         734|   -7.314706|   -5.712055|   -5.853158|   -5.737188|
|         735|   -7.308283|   -5.715989|   -5.849153|   -5.737768|
|         736|   -7.302070|   -5.719935|   -5.845288|   -5.738359|
|         737|   -7.296063|   -5.723888|   -5.841566|   -5.738963|
|         738|   -7.290258|   -5.727845|   -5.837990|   -5.739580|
|         739|   -7.284654|   -5.731804|   -5.834563|   -5.740210|
|         740|   -7.279249|   -5.735758|   -5.831287|   -5.740852|
|         741|   -7.274041|   -5.739705|   -5.828164|   -5.741507|
|         742|   -7.269026|   -5.743641|   -5.825195|   -5.742176|
|         743|   -7.264203|   -5.747561|   -5.822380|   -5.742858|
|         744|   -7.259570|   -5.751463|   -5.819721|   -5.743553|
|         745|   -7.255125|   -5.755341|   -5.817218|   -5.744262|
|         746|   -7.250866|   -5.759192|   -5.814873|   -5.744985|
|         747|   -7.246790|   -5.763010|   -5.812685|   -5.745721|
|         748|   -7.242897|   -5.766793|   -5.810655|   -5.746472|
|         749|   -7.239182|   -5.770536|   -5.808783|   -5.747237|
|         750|   -7.235646|   -5.774234|   -5.807068|   -5.748016|
|         751|   -7.232283|   -5.777877|   -5.805511|   -5.748809|
|         752|   -7.229091|   -5.781454|   -5.804111|   -5.749617|
|         753|   -7.226068|   -5.784961|   -5.802866|   -5.750440|
|         754|   -7.223211|   -5.788395|   -5.801776|   -5.751277|
|         755|   -7.220520|   -5.791752|   -5.800839|   -5.752129|
|         756|   -7.217993|   -5.795029|   -5.800054|   -5.752996|
|         757|   -7.215626|   -5.798220|   -5.799421|   -5.753878|
|         758|   -7.213420|   -5.801321|   -5.798937|   -5.754775|
|         759|   -7.211370|   -5.804328|   -5.798602|   -5.755686|
|         760|   -7.209476|   -5.807237|   -5.798412|   -5.756613|
|         761|   -7.207733|   -5.810043|   -5.798366|   -5.757554|
|         762|   -7.206141|   -5.812742|   -5.798462|   -5.758510|
|         763|   -7.204696|   -5.815329|   -5.798697|   -5.759481|
|         764|   -7.203396|   -5.817801|   -5.799069|   -5.760466|
|         765|   -7.202239|   -5.820154|   -5.799576|   -5.761465|
|         766|   -7.201224|   -5.822384|   -5.800216|   -5.762479|
|         767|   -7.200346|   -5.824487|   -5.800987|   -5.763506|
|         768|   -7.199606|   -5.826461|   -5.801887|   -5.764547|
|         769|   -7.199000|   -5.828301|   -5.802913|   -5.765602|
|         770|   -7.198525|   -5.830006|   -5.804061|   -5.766670|
|         771|   -7.198180|   -5.831570|   -5.805330|   -5.767750|
|         772|   -7.197962|   -5.832993|   -5.806717|   -5.768843|
|         773|   -7.197871|   -5.834274|   -5.808224|   -5.769948|
|         774|   -7.197907|   -5.835413|   -5.809850|   -5.771064|
|         775|   -7.198061|   -5.836407|   -5.811586|   -5.772192|
|         776|   -7.198330|   -5.837254|   -5.813428|   -5.773330|
|         777|   -7.198712|   -5.837955|   -5.815372|   -5.774478|
|         778|   -7.199206|   -5.838509|   -5.817416|   -5.775635|
|         779|   -7.199810|   -5.838917|   -5.819561|   -5.776801|
|         780|   -7.200523|   -5.839180|   -5.821803|   -5.777976|
|         781|   -7.201344|   -5.839300|   -5.824142|   -5.779157|
|         782|   -7.202272|   -5.839278|   -5.826576|   -5.780345|
|         783|   -7.203304|   -5.839116|   -5.829101|   -5.781539|
|         784|   -7.204439|   -5.838817|   -5.831716|   -5.782737|
|         785|   -7.205676|   -5.838384|   -5.834418|   -5.783939|
|         786|   -7.207011|   -5.837821|   -5.837206|   -5.785145|
|         787|   -7.208445|   -5.837132|   -5.840076|   -5.786352|
|         788|   -7.209977|   -5.836323|   -5.843027|   -5.787561|
|         789|   -7.211605|   -5.835402|   -5.846059|   -5.788770|
|         790|   -7.213329|   -5.834374|   -5.849169|   -5.789977|
|         791|   -7.215147|   -5.833241|   -5.852354|   -5.791183|
|         792|   -7.217061|   -5.832001|   -5.855617|   -5.792387|
|         793|   -7.219071|   -5.830655|   -5.858955|   -5.793586|
|         794|   -7.221176|   -5.829205|   -5.862367|   -5.794779|
|         795|   -7.223375|   -5.827652|   -5.865852|   -5.795967|
|         796|   -7.225671|   -5.826002|   -5.869408|   -5.797147|
|         797|   -7.228061|   -5.824258|   -5.873034|   -5.798319|
|         798|   -7.230546|   -5.822423|   -5.876729|   -5.799482|
|         799|   -7.233127|   -5.820504|   -5.880492|   -5.800634|
|         800|   -7.235805|   -5.818503|   -5.884321|   -5.801774|
|         801|   -7.238579|   -5.816424|   -5.888216|   -5.802901|
|         802|   -7.241451|   -5.814274|   -5.892175|   -5.804016|
|         803|   -7.244421|   -5.812055|   -5.896200|   -5.805115|
|         804|   -7.247492|   -5.809774|   -5.900290|   -5.806199|
|         805|   -7.250664|   -5.807434|   -5.904443|   -5.807267|
|         806|   -7.253939|   -5.805039|   -5.908660|   -5.808317|
|         807|   -7.257318|   -5.802594|   -5.912942|   -5.809350|
|         808|   -7.260803|   -5.800103|   -5.917289|   -5.810364|
|         809|   -7.264396|   -5.797571|   -5.921700|   -5.811358|
|         810|   -7.268099|   -5.795002|   -5.926177|   -5.812332|
|         811|   -7.271914|   -5.792402|   -5.930720|   -5.813285|
|         812|   -7.275843|   -5.789774|   -5.935329|   -5.814217|
|         813|   -7.279888|   -5.787122|   -5.940007|   -5.815127|
|         814|   -7.284053|   -5.784452|   -5.944753|   -5.816015|
|         815|   -7.288341|   -5.781767|   -5.949571|   -5.816879|
|         816|   -7.292755|   -5.779072|   -5.954461|   -5.817721|
|         817|   -7.297298|   -5.776371|   -5.959426|   -5.818539|
|         818|   -7.301970|   -5.773667|   -5.964464|   -5.819334|
|         819|   -7.306775|   -5.770965|   -5.969575|   -5.820104|
|         820|   -7.311715|   -5.768268|   -5.974762|   -5.820851|
|         821|   -7.316795|   -5.765580|   -5.980026|   -5.821573|
|         822|   -7.322019|   -5.762905|   -5.985371|   -5.822271|
|         823|   -7.327391|   -5.760244|   -5.990799|   -5.822944|
|         824|   -7.332911|   -5.757601|   -5.996308|   -5.823593|
|         825|   -7.338583|   -5.754977|   -6.001899|   -5.824218|
|         826|   -7.344410|   -5.752375|   -6.007572|   -5.824819|
|         827|   -7.350397|   -5.749796|   -6.013332|   -5.825396|
|         828|   -7.356547|   -5.747242|   -6.019181|   -5.825949|
|         829|   -7.362868|   -5.744715|   -6.025123|   -5.826478|
|         830|   -7.369365|   -5.742218|   -6.031164|   -5.826984|
|         831|   -7.376043|   -5.739751|   -6.037305|   -5.827466|
|         832|   -7.382906|   -5.737316|   -6.043550|   -5.827925|
|         833|   -7.389959|   -5.734914|   -6.049901|   -5.828360|
|         834|   -7.397206|   -5.732546|   -6.056360|   -5.828773|
|         835|   -7.404651|   -5.730212|   -6.062928|   -5.829164|
|         836|   -7.412300|   -5.727912|   -6.069609|   -5.829532|
|         837|   -7.420157|   -5.725648|   -6.076405|   -5.829879|
|         838|   -7.428228|   -5.723421|   -6.083316|   -5.830203|
|         839|   -7.436517|   -5.721232|   -6.090344|   -5.830506|
|         840|   -7.445028|   -5.719081|   -6.097487|   -5.830788|
|         841|   -7.453767|   -5.716970|   -6.104742|   -5.831048|
|         842|   -7.462736|   -5.714896|   -6.112105|   -5.831288|
|         843|   -7.471942|   -5.712863|   -6.119576|   -5.831508|
|         844|   -7.481388|   -5.710867|   -6.127149|   -5.831707|
|         845|   -7.491080|   -5.708911|   -6.134818|   -5.831887|
|         846|   -7.501021|   -5.706994|   -6.142578|   -5.832046|
|         847|   -7.511217|   -5.705117|   -6.150419|   -5.832187|
|         848|   -7.521670|   -5.703280|   -6.158331|   -5.832309|
|         849|   -7.532383|   -5.701483|   -6.166302|   -5.832412|
|         850|   -7.543357|   -5.699728|   -6.174314|   -5.832497|
|         851|   -7.554595|   -5.698014|   -6.182352|   -5.832564|
|         852|   -7.566094|   -5.696342|   -6.190393|   -5.832614|
|         853|   -7.577854|   -5.694714|   -6.198414|   -5.832646|
|         854|   -7.589869|   -5.693128|   -6.206386|   -5.832661|
|         855|   -7.602133|   -5.691586|   -6.214281|   -5.832659|
|         856|   -7.614637|   -5.690089|   -6.222066|   -5.832641|
|         857|   -7.627363|   -5.688636|   -6.229703|   -5.832607|
|         858|   -7.640295|   -5.687228|   -6.237155|   -5.832557|
|         859|   -7.653405|   -5.685865|   -6.244377|   -5.832492|
|         860|   -7.666663|   -5.684547|   -6.251328|   -5.832411|
|         861|   -7.680026|   -5.683274|   -6.257957|   -5.832316|
|         862|   -7.693447|   -5.682047|   -6.264217|   -5.832205|
|         863|   -7.706860|   -5.680865|   -6.270055|   -5.832081|
|         864|   -7.720196|   -5.679728|   -6.275420|   -5.831942|
|         865|   -7.733365|   -5.678637|   -6.280264|   -5.831789|
|         866|   -7.746268|   -5.677590|   -6.284536|   -5.831622|
|         867|   -7.758792|   -5.676588|   -6.288196|   -5.831442|
|         868|   -7.770803|   -5.675631|   -6.291200|   -5.831248|
|         869|   -7.782170|   -5.674719|   -6.293517|   -5.831042|
|         870|   -7.792730|   -5.673853|   -6.295116|   -5.830822|
|         871|   -7.802339|   -5.673032|   -6.295979|   -5.830590|
|         872|   -7.810836|   -5.672256|   -6.296096|   -5.830346|
|         873|   -7.818070|   -5.671526|   -6.295467|   -5.830089|
|         874|   -7.823920|   -5.670842|   -6.294104|   -5.829820|
|         875|   -7.828259|   -5.670203|   -6.292024|   -5.829540|
|         876|   -7.831016|   -5.669611|   -6.289258|   -5.829247|
|         877|   -7.832150|   -5.669065|   -6.285845|   -5.828944|
|         878|   -7.831640|   -5.668564|   -6.281826|   -5.828629|
|         879|   -7.829534|   -5.668110|   -6.277253|   -5.828303|
|         880|   -7.825895|   -5.667701|   -6.272185|   -5.827967|
|         881|   -7.820819|   -5.667338|   -6.266675|   -5.827620|
|         882|   -7.814444|   -5.667021|   -6.260792|   -5.827262|
|         883|   -7.806892|   -5.666750|   -6.254585|   -5.826894|
|         884|   -7.798322|   -5.666525|   -6.248120|   -5.826515|
|         885|   -7.788888|   -5.666345|   -6.241446|   -5.826127|
|         886|   -7.778730|   -5.666211|   -6.234616|   -5.825728|
|         887|   -7.768004|   -5.666123|   -6.227677|   -5.825320|
|         888|   -7.756821|   -5.666079|   -6.220666|   -5.824902|
|         889|   -7.745317|   -5.666081|   -6.213628|   -5.824474|
|         890|   -7.733582|   -5.666129|   -6.206586|   -5.824036|
|         891|   -7.721713|   -5.666221|   -6.199575|   -5.823589|
|         892|   -7.709793|   -5.666360|   -6.192619|   -5.823132|
|         893|   -7.697884|   -5.666545|   -6.185736|   -5.822666|
|         894|   -7.686046|   -5.666776|   -6.178944|   -5.822190|
|         895|   -7.674328|   -5.667056|   -6.172260|   -5.821705|
|         896|   -7.662776|   -5.667386|   -6.165703|   -5.821210|
|         897|   -7.651390|   -5.667765|   -6.159268|   -5.820705|
|         898|   -7.640194|   -5.668186|   -6.152950|   -5.820191|
|         899|   -7.629205|   -5.668647|   -6.146739|   -5.819668|
|         900|   -7.618437|   -5.669145|   -6.140614|   -5.819136|
|         901|   -7.607896|   -5.669679|   -6.134544|   -5.818595|
|         902|   -7.597594|   -5.670250|   -6.128504|   -5.818044|
|         903|   -7.587537|   -5.670860|   -6.122482|   -5.817485|
|         904|   -7.577736|   -5.671512|   -6.116473|   -5.816918|
|         905|   -7.568195|   -5.672209|   -6.110480|   -5.816342|
|         906|   -7.558915|   -5.672954|   -6.104509|   -5.815757|
|         907|   -7.549896|   -5.673747|   -6.098571|   -5.815165|
|         908|   -7.541134|   -5.674590|   -6.092675|   -5.814564|
|         909|   -7.532623|   -5.675483|   -6.086828|   -5.813955|
|         910|   -7.524355|   -5.676425|   -6.081039|   -5.813338|
|         911|   -7.516324|   -5.677416|   -6.075313|   -5.812714|
|         912|   -7.508520|   -5.678455|   -6.069655|   -5.812082|
|         913|   -7.500936|   -5.679542|   -6.064069|   -5.811442|
|         914|   -7.493563|   -5.680675|   -6.058556|   -5.810795|
|         915|   -7.486397|   -5.681853|   -6.053118|   -5.810141|
|         916|   -7.479431|   -5.683077|   -6.047755|   -5.809480|
|         917|   -7.472661|   -5.684345|   -6.042470|   -5.808812|
|         918|   -7.466084|   -5.685657|   -6.037262|   -5.808138|
|         919|   -7.459696|   -5.687014|   -6.032131|   -5.807457|
|         920|   -7.453495|   -5.688416|   -6.027077|   -5.806769|
|         921|   -7.447476|   -5.689862|   -6.022099|   -5.806076|
|         922|   -7.441638|   -5.691354|   -6.017197|   -5.805377|
|         923|   -7.435975|   -5.692891|   -6.012370|   -5.804673|
|         924|   -7.430484|   -5.694472|   -6.007619|   -5.803962|
|         925|   -7.425162|   -5.696098|   -6.002945|   -5.803247|
|         926|   -7.420003|   -5.697767|   -5.998347|   -5.802527|
|         927|   -7.415002|   -5.699477|   -5.993826|   -5.801802|
|         928|   -7.410155|   -5.701228|   -5.989382|   -5.801072|
|         929|   -7.405459|   -5.703017|   -5.985017|   -5.800339|
|         930|   -7.400908|   -5.704843|   -5.980730|   -5.799601|
|         931|   -7.396499|   -5.706705|   -5.976523|   -5.798860|
|         932|   -7.392229|   -5.708600|   -5.972395|   -5.798115|
|         933|   -7.388094|   -5.710527|   -5.968347|   -5.797368|
|         934|   -7.384091|   -5.712484|   -5.964377|   -5.796617|
|         935|   -7.380217|   -5.714470|   -5.960485|   -5.795864|
|         936|   -7.376470|   -5.716483|   -5.956672|   -5.795109|
|         937|   -7.372848|   -5.718521|   -5.952937|   -5.794352|
|         938|   -7.369349|   -5.720583|   -5.949279|   -5.793594|
|         939|   -7.365970|   -5.722666|   -5.945701|   -5.792834|
|         940|   -7.362711|   -5.724768|   -5.942201|   -5.792073|
|         941|   -7.359569|   -5.726887|   -5.938780|   -5.791312|
|         942|   -7.356542|   -5.729021|   -5.935438|   -5.790550|
|         943|   -7.353629|   -5.731167|   -5.932177|   -5.789788|
|         944|   -7.350828|   -5.733322|   -5.928995|   -5.789027|
|         945|   -7.348137|   -5.735483|   -5.925893|   -5.788266|
|         946|   -7.345556|   -5.737647|   -5.922872|   -5.787506|
|         947|   -7.343082|   -5.739811|   -5.919932|   -5.786747|
|         948|   -7.340715|   -5.741972|   -5.917073|   -5.785989|
|         949|   -7.338455|   -5.744127|   -5.914295|   -5.785233|
|         950|   -7.336300|   -5.746273|   -5.911599|   -5.784480|
|         951|   -7.334249|   -5.748407|   -5.908985|   -5.783728|
|         952|   -7.332303|   -5.750525|   -5.906453|   -5.782979|
|         953|   -7.330460|   -5.752624|   -5.904005|   -5.782232|
|         954|   -7.328720|   -5.754701|   -5.901639|   -5.781489|
|         955|   -7.327082|   -5.756752|   -5.899359|   -5.780749|
|         956|   -7.325547|   -5.758774|   -5.897163|   -5.780012|
|         957|   -7.324113|   -5.760763|   -5.895053|   -5.779278|
|         958|   -7.322779|   -5.762716|   -5.893029|   -5.778549|
|         959|   -7.321547|   -5.764629|   -5.891093|   -5.777823|
|         960|   -7.320415|   -5.766499|   -5.889244|   -5.777101|
|         961|   -7.319384|   -5.768323|   -5.887485|   -5.776384|
|         962|   -7.318452|   -5.770096|   -5.885816|   -5.775671|
|         963|   -7.317621|   -5.771817|   -5.884237|   -5.774963|
|         964|   -7.316890|   -5.773482|   -5.882750|   -5.774259|
|         965|   -7.316260|   -5.775088|   -5.881357|   -5.773560|
|         966|   -7.315732|   -5.776633|   -5.880058|   -5.772866|
|         967|   -7.315305|   -5.778113|   -5.878855|   -5.772177|
|         968|   -7.314981|   -5.779527|   -5.877750|   -5.771494|
|         969|   -7.314761|   -5.780872|   -5.876743|   -5.770815|
|         970|   -7.314646|   -5.782146|   -5.875837|   -5.770142|
|         971|   -7.314636|   -5.783347|   -5.875034|   -5.769474|
|         972|   -7.314733|   -5.784473|   -5.874334|   -5.768812|
|         973|   -7.314938|   -5.785524|   -5.873742|   -5.768155|
|         974|   -7.315253|   -5.786497|   -5.873257|   -5.767503|
|         975|   -7.315679|   -5.787392|   -5.872883|   -5.766857|
|         976|   -7.316218|   -5.788207|   -5.872621|   -5.766217|
[...]
|        3283|   -8.560581|   -6.477913|   -7.226685|   -5.781644|
|        3284|   -8.548086|   -6.478831|   -7.210651|   -5.781598|
|        3285|   -8.535393|   -6.479818|   -7.194591|   -5.781551|
|        3286|   -8.522592|   -6.480873|   -7.178611|   -5.781502|
|        3287|   -8.509757|   -6.481998|   -7.162788|   -5.781450|
|        3288|   -8.496952|   -6.483191|   -7.147190|   -5.781397|
|        3289|   -8.484228|   -6.484454|   -7.131855|   -5.781341|
|        3290|   -8.471628|   -6.485785|   -7.116824|   -5.781284|
|        3291|   -8.459187|   -6.487185|   -7.102118|   -5.781224|
|        3292|   -8.446932|   -6.488654|   -7.087755|   -5.781162|
|        3293|   -8.434885|   -6.490191|   -7.073747|   -5.781099|
|        3294|   -8.423062|   -6.491798|   -7.060096|   -5.781033|
|        3295|   -8.411475|   -6.493472|   -7.046806|   -5.780966|
|        3296|   -8.400134|   -6.495215|   -7.033875|   -5.780896|
|        3297|   -8.389045|   -6.497027|   -7.021300|   -5.780825|
|        3298|   -8.378210|   -6.498907|   -7.009075|   -5.780751|
|        3299|   -8.367633|   -6.500855|   -6.997194|   -5.780676|
|        3300|   -8.357313|   -6.502870|   -6.985643|   -5.780599|
|        3301|   -8.347249|   -6.504954|   -6.974418|   -5.780520|
|        3302|   -8.337440|   -6.507105|   -6.963515|   -5.780439|
|        3303|   -8.327882|   -6.509323|   -6.952924|   -5.780357|
|        3304|   -8.318573|   -6.511608|   -6.942636|   -5.780272|
|        3305|   -8.309508|   -6.513961|   -6.932642|   -5.780186|
|        3306|   -8.300684|   -6.516380|   -6.922933|   -5.780098|
|        3307|   -8.292096|   -6.518866|   -6.913503|   -5.780009|
|        3308|   -8.283739|   -6.521416|   -6.904347|   -5.779918|
|        3309|   -8.275610|   -6.524031|   -6.895455|   -5.779825|
|        3310|   -8.267703|   -6.526711|   -6.886821|   -5.779730|
|        3311|   -8.260015|   -6.529455|   -6.878436|   -5.779634|
|        3312|   -8.252540|   -6.532263|   -6.870295|   -5.779537|
|        3313|   -8.245274|   -6.535134|   -6.862388|   -5.779437|
|        3314|   -8.238212|   -6.538067|   -6.854709|   -5.779337|
|        3315|   -8.231349|   -6.541060|   -6.847252|   -5.779234|
|        3316|   -8.224680|   -6.544113|   -6.840010|   -5.779131|
|        3317|   -8.218203|   -6.547225|   -6.832977|   -5.779026|
|        3318|   -8.211911|   -6.550395|   -6.826148|   -5.778919|
|        3319|   -8.205802|   -6.553622|   -6.819516|   -5.778811|
|        3320|   -8.199871|   -6.556905|   -6.813080|   -5.778702|
|        3321|   -8.194115|   -6.560242|   -6.806832|   -5.778591|
|        3322|   -8.188531|   -6.563634|   -6.800769|   -5.778479|
|        3323|   -8.183113|   -6.567077|   -6.794886|   -5.778366|
|        3324|   -8.177860|   -6.570571|   -6.789179|   -5.778252|
|        3325|   -8.172768|   -6.574114|   -6.783643|   -5.778136|
|        3326|   -8.167833|   -6.577705|   -6.778275|   -5.778020|
|        3327|   -8.163053|   -6.581340|   -6.773072|   -5.777902|
|        3328|   -8.158426|   -6.585019|   -6.768031|   -5.777783|
|        3329|   -8.153947|   -6.588739|   -6.763147|   -5.777663|
|        3330|   -8.149615|   -6.592498|   -6.758418|   -5.777542|
|        3331|   -8.145428|   -6.596294|   -6.753841|   -5.777420|
|        3332|   -8.141382|   -6.600123|   -6.749412|   -5.777297|
|        3333|   -8.137475|   -6.603983|   -6.745130|   -5.777173|
|        3334|   -8.133705|   -6.607870|   -6.740991|   -5.777048|
|        3335|   -8.130071|   -6.611782|   -6.736992|   -5.776922|
|        3336|   -8.126569|   -6.615716|   -6.733133|   -5.776796|
|        3337|   -8.123198|   -6.619667|   -6.729410|   -5.776669|
|        3338|   -8.119956|   -6.623632|   -6.725822|   -5.776541|
|        3339|   -8.116841|   -6.627607|   -6.722366|   -5.776412|
|        3340|   -8.113851|   -6.631587|   -6.719041|   -5.776282|
|        3341|   -8.110985|   -6.635569|   -6.715844|   -5.776152|
|        3342|   -8.108240|   -6.639546|   -6.712773|   -5.776022|
|        3343|   -8.105616|   -6.643515|   -6.709828|   -5.775890|
|        3344|   -8.103111|   -6.647470|   -6.707006|   -5.775758|
|        3345|   -8.100723|   -6.651405|   -6.704306|   -5.775626|
|        3346|   -8.098452|   -6.655316|   -6.701727|   -5.775493|
|        3347|   -8.096296|   -6.659195|   -6.699267|   -5.775360|
|        3348|   -8.094253|   -6.663038|   -6.696924|   -5.775226|
|        3349|   -8.092323|   -6.666837|   -6.694699|   -5.775092|
|        3350|   -8.090505|   -6.670586|   -6.692590|   -5.774958|
|        3351|   -8.088797|   -6.674278|   -6.690595|   -5.774823|
|        3352|   -8.087200|   -6.677905|   -6.688713|   -5.774688|
|        3353|   -8.085710|   -6.681462|   -6.686944|   -5.774553|
|        3354|   -8.084329|   -6.684939|   -6.685287|   -5.774418|
|        3355|   -8.083055|   -6.688332|   -6.683740|   -5.774282|
|        3356|   -8.081888|   -6.691631|   -6.682304|   -5.774146|
|        3357|   -8.080826|   -6.694830|   -6.680977|   -5.774011|
|        3358|   -8.079869|   -6.697921|   -6.679759|   -5.773875|
|        3359|   -8.079017|   -6.700895|   -6.678649|   -5.773739|
|        3360|   -8.078268|   -6.703747|   -6.677647|   -5.773603|
|        3361|   -8.077622|   -6.706468|   -6.676751|   -5.773468|
|        3362|   -8.077080|   -6.709051|   -6.675961|   -5.773332|
|        3363|   -8.076640|   -6.711490|   -6.675278|   -5.773196|
|        3364|   -8.076302|   -6.713778|   -6.674701|   -5.773061|
|        3365|   -8.076065|   -6.715908|   -6.674230|   -5.772926|
|        3366|   -8.075931|   -6.717876|   -6.673864|   -5.772791|
|        3367|   -8.075897|   -6.719674|   -6.673602|   -5.772656|
|        3368|   -8.075964|   -6.721297|   -6.673445|   -5.772522|
|        3369|   -8.076132|   -6.722742|   -6.673392|   -5.772388|
|        3370|   -8.076401|   -6.724004|   -6.673443|   -5.772254|
|        3371|   -8.076770|   -6.725080|   -6.673600|   -5.772121|
|        3372|   -8.077240|   -6.725968|   -6.673862|   -5.771988|
|        3373|   -8.077810|   -6.726664|   -6.674228|   -5.771855|
|        3374|   -8.078481|   -6.727168|   -6.674699|   -5.771723|
|        3375|   -8.079253|   -6.727478|   -6.675273|   -5.771592|
|        3376|   -8.080126|   -6.727595|   -6.675952|   -5.771461|
|        3377|   -8.081099|   -6.727520|   -6.676736|   -5.771331|
|        3378|   -8.082174|   -6.727253|   -6.677626|   -5.771201|
|        3379|   -8.083350|   -6.726797|   -6.678622|   -5.771072|
|        3380|   -8.084627|   -6.726154|   -6.679725|   -5.770944|
|        3381|   -8.086007|   -6.725328|   -6.680934|   -5.770817|
|        3382|   -8.087489|   -6.724321|   -6.682248|   -5.770690|
|        3383|   -8.089074|   -6.723141|   -6.683670|   -5.770564|
|        3384|   -8.090761|   -6.721791|   -6.685199|   -5.770439|
|        3385|   -8.092553|   -6.720276|   -6.686838|   -5.770315|
|        3386|   -8.094449|   -6.718603|   -6.688587|   -5.770191|
|        3387|   -8.096450|   -6.716777|   -6.690445|   -5.770069|
|        3388|   -8.098556|   -6.714805|   -6.692413|   -5.769947|
|        3389|   -8.100769|   -6.712694|   -6.694492|   -5.769827|
|        3390|   -8.103088|   -6.710452|   -6.696683|   -5.769707|
|        3391|   -8.105515|   -6.708086|   -6.698988|   -5.769589|
|        3392|   -8.108051|   -6.705602|   -6.701407|   -5.769471|
|        3393|   -8.110697|   -6.703009|   -6.703942|   -5.769355|
|        3394|   -8.113453|   -6.700313|   -6.706594|   -5.769240|
|        3395|   -8.116320|   -6.697523|   -6.709361|   -5.769126|
|        3396|   -8.119300|   -6.694645|   -6.712248|   -5.769013|
|        3397|   -8.122394|   -6.691688|   -6.715254|   -5.768901|
|        3398|   -8.125602|   -6.688658|   -6.718383|   -5.768791|
|        3399|   -8.128927|   -6.685563|   -6.721634|   -5.768682|
|        3400|   -8.132369|   -6.682409|   -6.725012|   -5.768574|
|        3401|   -8.135930|   -6.679203|   -6.728513|   -5.768468|
|        3402|   -8.139611|   -6.675952|   -6.732142|   -5.768363|
|        3403|   -8.143415|   -6.672662|   -6.735901|   -5.768259|
|        3404|   -8.147341|   -6.669340|   -6.739792|   -5.768156|
|        3405|   -8.151393|   -6.665991|   -6.743816|   -5.768055|
|        3406|   -8.155572|   -6.662621|   -6.747976|   -5.767956|
|        3407|   -8.159879|   -6.659236|   -6.752273|   -5.767858|
|        3408|   -8.164318|   -6.655840|   -6.756710|   -5.767761|
|        3409|   -8.168889|   -6.652440|   -6.761289|   -5.767666|
|        3410|   -8.173594|   -6.649039|   -6.766014|   -5.767573|
|        3411|   -8.178437|   -6.645642|   -6.770885|   -5.767481|
|        3412|   -8.183419|   -6.642253|   -6.775907|   -5.767390|
|        3413|   -8.188542|   -6.638877|   -6.781083|   -5.767301|
|        3414|   -8.193810|   -6.635516|   -6.786414|   -5.767214|
|        3415|   -8.199224|   -6.632177|   -6.791904|   -5.767128|
|        3416|   -8.204788|   -6.628861|   -6.797558|   -5.767045|
|        3417|   -8.210504|   -6.625571|   -6.803378|   -5.766962|
|        3418|   -8.216376|   -6.622310|   -6.809368|   -5.766882|
|        3419|   -8.222405|   -6.619081|   -6.815531|   -5.766803|
|        3420|   -8.228596|   -6.615888|   -6.821873|   -5.766725|
|        3421|   -8.234952|   -6.612732|   -6.828396|   -5.766650|
|        3422|   -8.241477|   -6.609617|   -6.835107|   -5.766576|
|        3423|   -8.248173|   -6.606544|   -6.842010|   -5.766504|
|        3424|   -8.255044|   -6.603515|   -6.849109|   -5.766434|
|        3425|   -8.262095|   -6.600532|   -6.856409|   -5.766365|
|        3426|   -8.269329|   -6.597596|   -6.863917|   -5.766299|
|        3427|   -8.276751|   -6.594710|   -6.871638|   -5.766234|
|        3428|   -8.284365|   -6.591876|   -6.879578|   -5.766171|
|        3429|   -8.292175|   -6.589094|   -6.887743|   -5.766110|
|        3430|   -8.300185|   -6.586365|   -6.896141|   -5.766050|
|        3431|   -8.308401|   -6.583692|   -6.904778|   -5.765993|
|        3432|   -8.316826|   -6.581074|   -6.913659|   -5.765937|
|        3433|   -8.325466|   -6.578514|   -6.922796|   -5.765884|
|        3434|   -8.334325|   -6.576012|   -6.932195|   -5.765832|
|        3435|   -8.343408|   -6.573570|   -6.941865|   -5.765782|
|        3436|   -8.352720|   -6.571187|   -6.951813|   -5.765734|
|        3437|   -8.362266|   -6.568865|   -6.962050|   -5.765688|
|        3438|   -8.372050|   -6.566603|   -6.972582|   -5.765643|
|        3439|   -8.382077|   -6.564405|   -6.983424|   -5.765601|
|        3440|   -8.392351|   -6.562268|   -6.994584|   -5.765561|
|        3441|   -8.402876|   -6.560195|   -7.006072|   -5.765522|
|        3442|   -8.413654|   -6.558186|   -7.017899|   -5.765486|
|        3443|   -8.424688|   -6.556240|   -7.030074|   -5.765451|
|        3444|   -8.435981|   -6.554359|   -7.042606|   -5.765418|
|        3445|   -8.447532|   -6.552542|   -7.055512|   -5.765388|
|        3446|   -8.459342|   -6.550791|   -7.068800|   -5.765359|
|        3447|   -8.471407|   -6.549106|   -7.082479|   -5.765332|
|        3448|   -8.483723|   -6.547486|   -7.096558|   -5.765307|
|        3449|   -8.496282|   -6.545931|   -7.111042|   -5.765284|
|        3450|   -8.509074|   -6.544443|   -7.125937|   -5.765263|
|        3451|   -8.522085|   -6.543021|   -7.141252|   -5.765244|
|        3452|   -8.535297|   -6.541666|   -7.156983|   -5.765227|
|        3453|   -8.548684|   -6.540378|   -7.173125|   -5.765212|
|        3454|   -8.562215|   -6.539157|   -7.189667|   -5.765199|
|        3455|   -8.575851|   -6.538002|   -7.206585|   -5.765188|
|        3456|   -8.589543|   -6.536914|   -7.223850|   -5.765178|
|        3457|   -8.603235|   -6.535894|   -7.241427|   -5.765171|
|        3458|   -8.616855|   -6.534941|   -7.259250|   -5.765165|
|        3459|   -8.630319|   -6.534055|   -7.277240|   -5.765162|
|        3460|   -8.643528|   -6.533236|   -7.295287|   -5.765160|
|        3461|   -8.656370|   -6.532485|   -7.313250|   -5.765161|
|        3462|   -8.668716|   -6.531801|   -7.330959|   -5.765163|
|        3463|   -8.680423|   -6.531185|   -7.348209|   -5.765167|
|        3464|   -8.691337|   -6.530636|   -7.364734|   -5.765173|
|        3465|   -8.701293|   -6.530155|   -7.380237|   -5.765181|
|        3466|   -8.710123|   -6.529741|   -7.394373|   -5.765190|
|        3467|   -8.717663|   -6.529395|   -7.406785|   -5.765202|
|        3468|   -8.723764|   -6.529116|   -7.417115|   -5.765215|
|        3469|   -8.728294|   -6.528905|   -7.425021|   -5.765231|
|        3470|   -8.731153|   -6.528761|   -7.430216|   -5.765248|
|        3471|   -8.732275|   -6.528685|   -7.432502|   -5.765267|
|        3472|   -8.731641|   -6.528676|   -7.431799|   -5.765288|
|        3473|   -8.729271|   -6.528735|   -7.428154|   -5.765310|
|        3474|   -8.725232|   -6.528861|   -7.421732|   -5.765335|
|        3475|   -8.719624|   -6.529055|   -7.412787|   -5.765361|
|        3476|   -8.712579|   -6.529316|   -7.401644|   -5.765389|
|        3477|   -8.704248|   -6.529644|   -7.388664|   -5.765419|
|        3478|   -8.694796|   -6.530040|   -7.374214|   -5.765450|
|        3479|   -8.684389|   -6.530503|   -7.358644|   -5.765484|
|        3480|   -8.673192|   -6.531034|   -7.342260|   -5.765519|
|        3481|   -8.661360|   -6.531631|   -7.325336|   -5.765555|
|        3482|   -8.649034|   -6.532296|   -7.308096|   -5.765594|
|        3483|   -8.636344|   -6.533028|   -7.290729|   -5.765634|
|        3484|   -8.623403|   -6.533827|   -7.273382|   -5.765676|
|        3485|   -8.610308|   -6.534693|   -7.256169|   -5.765719|
|        3486|   -8.597143|   -6.535626|   -7.239181|   -5.765765|
|        3487|   -8.583979|   -6.536627|   -7.222481|   -5.765811|
|        3488|   -8.570874|   -6.537694|   -7.206120|   -5.765860|
|        3489|   -8.557876|   -6.538828|   -7.190131|   -5.765910|
|        3490|   -8.545023|   -6.540028|   -7.174536|   -5.765961|
|        3491|   -8.532348|   -6.541296|   -7.159349|   -5.766015|
|        3492|   -8.519873|   -6.542630|   -7.144578|   -5.766069|
|        3493|   -8.507619|   -6.544030|   -7.130223|   -5.766126|
|        3494|   -8.495600|   -6.545497|   -7.116282|   -5.766183|
|        3495|   -8.483825|   -6.547031|   -7.102752|   -5.766243|
|        3496|   -8.472303|   -6.548630|   -7.089624|   -5.766304|
|        3497|   -8.461037|   -6.550296|   -7.076891|   -5.766366|
|        3498|   -8.450031|   -6.552027|   -7.064541|   -5.766430|
|        3499|   -8.439285|   -6.553824|   -7.052567|   -5.766495|
|        3500|   -8.428798|   -6.555687|   -7.040956|   -5.766562|
|        3501|   -8.418570|   -6.557615|   -7.029698|   -5.766630|
|        3502|   -8.408596|   -6.559608|   -7.018782|   -5.766699|
|        3503|   -8.398875|   -6.561666|   -7.008198|   -5.766770|
|        3504|   -8.389402|   -6.563789|   -6.997935|   -5.766842|
|        3505|   -8.380173|   -6.565976|   -6.987983|   -5.766916|
|        3506|   -8.371185|   -6.568228|   -6.978331|   -5.766990|
|        3507|   -8.362431|   -6.570543|   -6.968972|   -5.767066|
|        3508|   -8.353908|   -6.572922|   -6.959895|   -5.767144|
|        3509|   -8.345611|   -6.575364|   -6.951091|   -5.767223|
|        3510|   -8.337535|   -6.577869|   -6.942553|   -5.767302|
|        3511|   -8.329676|   -6.580435|   -6.934271|   -5.767383|
|        3512|   -8.322028|   -6.583064|   -6.926238|   -5.767466|
|        3513|   -8.314586|   -6.585753|   -6.918447|   -5.767549|
|        3514|   -8.307348|   -6.588502|   -6.910890|   -5.767634|
|        3515|   -8.300307|   -6.591312|   -6.903561|   -5.767720|
|        3516|   -8.293459|   -6.594180|   -6.896453|   -5.767806|
|        3517|   -8.286802|   -6.597107|   -6.889561|   -5.767894|
|        3518|   -8.280329|   -6.600091|   -6.882878|   -5.767983|
|        3519|   -8.274038|   -6.603131|   -6.876398|   -5.768073|
|        3520|   -8.267924|   -6.606227|   -6.870117|   -5.768164|
|        3521|   -8.261984|   -6.609378|   -6.864030|   -5.768256|
|        3522|   -8.256214|   -6.612582|   -6.858130|   -5.768349|
|        3523|   -8.250611|   -6.615838|   -6.852415|   -5.768443|
|        3524|   -8.245172|   -6.619145|   -6.846880|   -5.768538|
|        3525|   -8.239892|   -6.622501|   -6.841519|   -5.768634|
|        3526|   -8.234770|   -6.625906|   -6.836330|   -5.768731|
|        3527|   -8.229802|   -6.629356|   -6.831308|   -5.768828|
|        3528|   -8.224985|   -6.632851|   -6.826449|   -5.768927|
|        3529|   -8.220317|   -6.636388|   -6.821750|   -5.769026|
|        3530|   -8.215795|   -6.639966|   -6.817208|   -5.769126|
|        3531|   -8.211416|   -6.643581|   -6.812820|   -5.769226|
|        3532|   -8.207179|   -6.647233|   -6.808582|   -5.769328|
|        3533|   -8.203080|   -6.650917|   -6.804492|   -5.769430|
|        3534|   -8.199118|   -6.654633|   -6.800548|   -5.769533|
|        3535|   -8.195290|   -6.658376|   -6.796746|   -5.769637|
|        3536|   -8.191595|   -6.662144|   -6.793084|   -5.769741|
|        3537|   -8.188030|   -6.665934|   -6.789559|   -5.769846|
|        3538|   -8.184594|   -6.669742|   -6.786171|   -5.769951|
|        3539|   -8.181285|   -6.673565|   -6.782915|   -5.770057|
|        3540|   -8.178102|   -6.677399|   -6.779791|   -5.770164|
|        3541|   -8.175042|   -6.681240|   -6.776796|   -5.770271|
|        3542|   -8.172104|   -6.685084|   -6.773929|   -5.770378|
|        3543|   -8.169286|   -6.688927|   -6.771187|   -5.770486|
|        3544|   -8.166588|   -6.692765|   -6.768569|   -5.770595|
|        3545|   -8.164008|   -6.696591|   -6.766074|   -5.770704|
|        3546|   -8.161545|   -6.700402|   -6.763699|   -5.770813|
|        3547|   -8.159196|   -6.704192|   -6.761444|   -5.770923|
|        3548|   -8.156963|   -6.707955|   -6.759307|   -5.771033|
|        3549|   -8.154842|   -6.711687|   -6.757287|   -5.771143|
|        3550|   -8.152834|   -6.715381|   -6.755382|   -5.771254|
|        3551|   -8.150936|   -6.719030|   -6.753591|   -5.771365|
|        3552|   -8.149149|   -6.722630|   -6.751914|   -5.771476|
|        3553|   -8.147472|   -6.726174|   -6.750349|   -5.771587|
|        3554|   -8.145903|   -6.729654|   -6.748896|   -5.771699|
|        3555|   -8.144442|   -6.733065|   -6.747553|   -5.771811|
|        3556|   -8.143088|   -6.736400|   -6.746319|   -5.771923|
|        3557|   -8.141841|   -6.739651|   -6.745195|   -5.772035|
|        3558|   -8.140700|   -6.742813|   -6.744178|   -5.772147|
|        3559|   -8.139664|   -6.745877|   -6.743268|   -5.772259|
|        3560|   -8.138733|   -6.748838|   -6.742466|   -5.772371|
|        3561|   -8.137907|   -6.751688|   -6.741769|   -5.772483|
|        3562|   -8.137184|   -6.754421|   -6.741178|   -5.772595|
|        3563|   -8.136565|   -6.757029|   -6.740693|   -5.772708|
|        3564|   -8.136050|   -6.759507|   -6.740312|   -5.772820|
|        3565|   -8.135637|   -6.761848|   -6.740035|   -5.772932|
|        3566|   -8.135328|   -6.764046|   -6.739862|   -5.773043|
|        3567|   -8.135120|   -6.766095|   -6.739793|   -5.773155|
|        3568|   -8.135016|   -6.767990|   -6.739828|   -5.773266|
|        3569|   -8.135013|   -6.769726|   -6.739965|   -5.773378|
|        3570|   -8.135113|   -6.771300|   -6.740206|   -5.773489|
|        3571|   -8.135315|   -6.772705|   -6.740550|   -5.773599|
|        3572|   -8.135620|   -6.773940|   -6.740997|   -5.773710|
|        3573|   -8.136026|   -6.775002|   -6.741548|   -5.773820|
|        3574|   -8.136535|   -6.775887|   -6.742201|   -5.773930|
|        3575|   -8.137147|   -6.776594|   -6.742957|   -5.774039|
|        3576|   -8.137861|   -6.777122|   -6.743817|   -5.774148|
|        3577|   -8.138678|   -6.777470|   -6.744780|   -5.774257|
|        3578|   -8.139598|   -6.777638|   -6.745847|   -5.774365|
|        3579|   -8.140622|   -6.777627|   -6.747018|   -5.774472|
|        3580|   -8.141749|   -6.777439|   -6.748293|   -5.774579|
