scsub> Executing:  'cd /home/hem1dev/Codes/SU2_Github_Mark_Test/SU2/Venturi'


WARNING: CONV_CRITERIA is deprecated. SU2 will choose the criteria automatically based on the CONV_FIELD.
That is, RESIDUAL for any RMS_* BGS_* value, and CAUCHY for coefficients such as DRAG etc.


-------------------------------------------------------------------------
|    ___ _   _ ___                                                      |
|   / __| | | |_  )   Release 7.1.1 "Blackbird"                         |
|   \__ \ |_| |/ /                                                      |
|   |___/\___//___|   Suite (Computational Fluid Dynamics Code)         |
|                                                                       |
-------------------------------------------------------------------------
| SU2 Project Website: https://su2code.github.io                        |
|                                                                       |
| The SU2 Project is maintained by the SU2 Foundation                   |
| (http://su2foundation.org)                                            |
-------------------------------------------------------------------------
| Copyright 2012-2021, SU2 Contributors                                 |
|                                                                       |
| SU2 is free software; you can redistribute it and/or                  |
| modify it under the terms of the GNU Lesser General Public            |
| License as published by the Free Software Foundation; either          |
| version 2.1 of the License, or (at your option) any later version.    |
|                                                                       |
| SU2 is distributed in the hope that it will be useful,                |
| but WITHOUT ANY WARRANTY; without even the implied warranty of        |
| MERCHANTABILITY or FITNESS FOR A PARTICULAR PURPOSE. See the GNU      |
| Lesser General Public License for more details.                       |
|                                                                       |
| You should have received a copy of the GNU Lesser General Public      |
| License along with SU2. If not, see <http://www.gnu.org/licenses/>.   |
-------------------------------------------------------------------------


WARNING: CONV_CRITERIA is deprecated. SU2 will choose the criteria automatically based on the CONV_FIELD.
That is, RESIDUAL for any RMS_* BGS_* value, and CAUCHY for coefficients such as DRAG etc.


Parsing config file for zone 0


WARNING: CONV_CRITERIA is deprecated. SU2 will choose the criteria automatically based on the CONV_FIELD.
That is, RESIDUAL for any RMS_* BGS_* value, and CAUCHY for coefficients such as DRAG etc.


----------------- Physical Case Definition ( Zone 0 ) -------------------
Incompressible RANS equations.
Turbulence model: Menter's SST
Hybrid RANS/LES: No Hybrid RANS/LES
No restart solution, use the values at infinity (freestream).
Dimensional simulation.
The reference area is 1 m^2.
The semi-span will be computed using the max y(3D) value.
The reference length is 1 m.
Input mesh file name: SmallBoxVerification.su2

--------------- Space Numerical Integration ( Zone 0 ) ------------------
Flux difference splitting (FDS) upwind scheme for the flow inviscid terms.
Second order integration in space, with slope limiter.
No slope-limiting method. 
Average of gradients with correction (viscous flow terms).
Average of gradients with correction (viscous turbulence terms).
Gradient for upwind reconstruction: Green-Gauss.
Gradient for viscous and source terms: Green-Gauss.

--------------- Time Numerical Integration  ( Zone 0 ) ------------------
Local time stepping (steady state simulation).
Euler implicit method for the flow equations.
FGMRES is used for solving the linear system.
Using a ILU(0) preconditioning.
Convergence criteria of the linear solver: 1e-08.
Max number of linear iterations: 50.
No CFL adaptation.
Courant-Friedrichs-Lewy number:        5
Euler implicit time integration for the turbulence model.

------------------ Convergence Criteria  ( Zone 0 ) ---------------------
Maximum number of solver subiterations: 10000.
Begin convergence monitoring at iteration 10.
Residual minimum value: 1e-15.
Cauchy series min. value: 1e-06.
Number of Cauchy elements: 100.
Begin windowed time average at iteration 0.

-------------------- Output Information ( Zone 0 ) ----------------------
Writing solution files every 1000 iterations.
Writing the convergence history file every 1 inner iterations.
Writing the screen convergence history every 1 inner iterations.
The tabular file format is CSV (.csv).
Convergence history file name: history_smallbox_turb.
Forces breakdown file name: forces_breakdown.dat.
Surface file name: surface_verification_mixtureviscosity_smallbox_turb.
Volume file name: flow_verification_mixtureviscosity_smallbox_turb.
Restart file name: restart_verification_mixtureviscosity_smallbox_turb.dat.

------------- Config File Boundary Information ( Zone 0 ) ---------------
+-----------------------------------------------------------------------+
|                        Marker Type|                        Marker Name|
+-----------------------------------------------------------------------+
|                     Inlet boundary|                      inlet_methane|
|                                   |                          inlet_air|
+-----------------------------------------------------------------------+
|                    Outlet boundary|                             outlet|
+-----------------------------------------------------------------------+
|                     Heat flux wall|                               wall|
+-----------------------------------------------------------------------+

-------------------- Output Preprocessing ( Zone 0 ) --------------------
Screen output fields: INNER_ITER, RMS_PRESSURE, RMS_VELOCITY-X, RMS_VELOCITY-Y, RMS_PASSIVE_SCALAR
History output group(s): RMS_RES, AERO_COEFF, FLOW_COEFF
Ignoring Convergence Field(s): RMS_DENSITY 
Convergence field(s): RMS_PRESSURE, RMS_VELOCITY-X, RMS_VELOCITY-Y, RMS_TKE
Warning: No (valid) fields chosen for time convergence monitoring. Time convergence monitoring inactive.
  Info: Ignoring the following volume output fields/groups:
  SOURCE, LOOKUP
Volume output fields: DENSITY, SOLUTION, PRIMITIVE, RESIDUAL, COORDINATES

------------------- Geometry Preprocessing ( Zone 0 ) -------------------
Two dimensional problem.
380 grid points before partitioning.
342 volume elements before partitioning.
4 surface markers.
38 boundary elements in index 0 (Marker = wall).
18 boundary elements in index 1 (Marker = outlet).
9 boundary elements in index 2 (Marker = inlet_air).
9 boundary elements in index 3 (Marker = inlet_methane).
Executing the partitioning functions.
Building the graph adjacency structure.
Calling ParMETIS... graph partitioning complete (356 edge cuts).
Distributing ParMETIS coloring.
Rebalancing vertices.
Rebalancing volume element connectivity.
Rebalancing markers and surface elements.
1311 vertices including ghost points. 
743 interior elements including halo cells. 
743 quadrilaterals.
Establishing MPI communication patterns.
Setting point connectivity.
Renumbering points (Reverse Cuthill McKee Ordering).
Recomputing point connectivity.
Setting element connectivity.
Checking the numerical grid orientation.
There has been a re-orientation of 743 QUADRILATERAL volume elements.
There has been a re-orientation of 102 LINE surface elements.
Identifying edges and vertices.
Setting the control volume structure.
Area of the computational grid: 0.217251.
Searching for the closest normal neighbors to the surfaces.
Storing a mapping from global to local point index.
Compute the surface curvature.
Max K: 37.7901. Mean K: 3.82684. Standard deviation K: 11.4005.
Checking for periodicity.
Computing mesh quality statistics for the dual control volumes.
+--------------------------------------------------------------+
|           Mesh Quality Metric|        Minimum|        Maximum|
+--------------------------------------------------------------+
|    Orthogonality Angle (deg.)|             90|             90|
|     CV Face Area Aspect Ratio|        4.73684|        18.9474|
|           CV Sub-Volume Ratio|              1|              1|
+--------------------------------------------------------------+
Finding max control volume width.
Communicating number of neighbors.
Wetted area = 0 m.
Area projection in the x-plane = 0 m, y-plane = 0 m.
Max. coordinate in the x-direction = -1e+10 m, y-direction = -1e+10 m.
Min. coordinate in the x-direction = 1e+10 m, y-direction = 1e+10 m.
Computing wall distances.

-------------------- Solver Preprocessing ( Zone 0 ) --------------------
Incompressible flow: rho_ref, vel_ref, temp_ref, p_ref
are set to 1.0 in order to perform a dimensional calculation.
Force coefficients computed using initial values.
The reference area for force coeffs. is 1 m^2.
The reference length for force coeffs. is 1 m.
The pressure is decomposed into thermodynamic and dynamic components.
The initial value of the dynamic pressure is 0.
Mach number: 0, computed using fluid speed of sound.
For external flows, the initial state is imposed at the far-field.
Angle of attack (deg): 0, computed using the initial velocity.
Side slip angle (deg): 0, computed using the initial velocity.
Reynolds number per meter: 66852.4, computed using initial values.
Reynolds number is a byproduct of inputs only (not used internally).
SI units only. The grid should be dimensional (meters).
Energy equation is active and coupled for variable density.

-- Models:
+------------------------------------------------------------------------------+
|          Viscosity Model|        Conductivity Model|              Fluid Model|
+------------------------------------------------------------------------------+
|               SUTHERLAND|          CONSTANT_PRANDTL|+------------------------------------------------------------------------------+
-- Fluid properties:
+------------------------------------------------------------------------------+
|                  Name|    Dim. value|    Ref. value|      Unit|Non-dim. value|
+------------------------------------------------------------------------------+
|        Ref. Viscosity|     1.716e-05|             1|   N.s/m^2|     1.716e-05|
|      Sutherland Temp.|        273.15|             1|         K|        273.15|
|     Sutherland Const.|         110.4|             1|         K|         110.4|
+------------------------------------------------------------------------------+
|        Prandtl (Lam.)|             -|             -|         -|          0.72|
|       Prandtl (Turb.)|             -|             -|         -|           0.9|
+------------------------------------------------------------------------------+
-- Initial and free-stream conditions:
+------------------------------------------------------------------------------+
|                  Name|    Dim. value|    Ref. value|      Unit|Non-dim. value|
+------------------------------------------------------------------------------+
|      Dynamic Pressure|             0|             1|        Pa|             0|
|        Total Pressure|           0.6|             1|        Pa|           0.6|
|               Density|           1.2|             1|    kg/m^3|           1.2|
|           Temperature|           300|             1|         K|           300|
|            Velocity-X|             1|             1|       m/s|             1|
|            Velocity-Y|             0|             1|       m/s|             0|
|    Velocity Magnitude|             1|             1|       m/s|             1|
+------------------------------------------------------------------------------+
|             Viscosity|     1.795e-05|             1|   N.s/m^2|     1.795e-05|
|          Conductivity|             -|             1|   W/m^2.K|             -|
|     Turb. Kin. Energy|       0.00375|             1|   m^2/s^2|       0.00375|
|     Spec. Dissipation|       25.0696|             1|       1/s|       25.0696|
+------------------------------------------------------------------------------+
|           Mach Number|             -|             -|         -|             0|
|       Reynolds Number|             -|             -|         -|       66852.4|
+------------------------------------------------------------------------------+
Initialize Jacobian structure (Navier-Stokes). MG level: 0.
Initialize Jacobian structure (passive scalar model).
Initialize Jacobian structure (SST model).

------------------- Numerics Preprocessing ( Zone 0 ) -------------------

----------------- Integration Preprocessing ( Zone 0 ) ------------------

------------------- Iteration Preprocessing ( Zone 0 ) ------------------
Euler/Navier-Stokes/RANS fluid iteration.

------------------------------ Begin Solver -----------------------------

Simulation Run using the Single-zone Driver
Initializing passive scalar (initial condition).
initialization = 1 1
+----------------------------------------------------------------+
|  Inner_Iter|      rms[P]|      rms[U]|      rms[V]|      rms[c]|
+----------------------------------------------------------------+
|           0|   -4.781938|   -4.788233|  -19.855848|   -5.368940|
|           1|   -3.815174|   -4.207257|   -6.079960|   -3.116973|
|           2|   -3.933018|   -4.114572|   -4.058034|   -3.160985|
|           3|   -4.067048|   -3.966677|   -3.963633|   -3.196692|
|           4|   -4.148456|   -3.879878|   -4.015042|   -3.223227|
|           5|   -4.179753|   -3.849187|   -4.123025|   -3.243307|
|           6|   -4.198955|   -3.844350|   -4.256934|   -3.258855|
|           7|   -4.219937|   -3.843802|   -4.415699|   -3.271036|
|           8|   -4.243802|   -3.839815|   -4.600515|   -3.280523|
|           9|   -4.269233|   -3.832298|   -4.761595|   -3.288031|
|          10|   -4.293294|   -3.826636|   -4.815521|   -3.294079|
|          11|   -4.311875|   -3.823834|   -4.823242|   -3.299063|
|          12|   -4.322057|   -3.823443|   -4.865236|   -3.303248|
|          13|   -4.324183|   -3.824468|   -4.954750|   -3.306816|
|          14|   -4.321375|   -3.826095|   -5.057413|   -3.309944|
|          15|   -4.317381|   -3.828121|   -5.084817|   -3.312760|
|          16|   -4.314749|   -3.830612|   -5.034954|   -3.315357|
|          17|   -4.314535|   -3.833393|   -4.990745|   -3.317806|
|          18|   -4.316766|   -3.836547|   -4.984386|   -3.320141|
|          19|   -4.321018|   -3.840231|   -5.018400|   -3.322382|
|          20|   -4.326777|   -3.844313|   -5.088955|   -3.324567|
|          21|   -4.333583|   -3.848657|   -5.186239|   -3.326733|
|          22|   -4.341067|   -3.853156|   -5.283624|   -3.328895|
|          23|   -4.348955|   -3.857748|   -5.336827|   -3.331059|
|          24|   -4.357053|   -3.862402|   -5.336267|   -3.333215|
|          25|   -4.365246|   -3.867111|   -5.320037|   -3.335339|
|          26|   -4.373470|   -3.871869|   -5.315230|   -3.337412|
|          27|   -4.381688|   -3.876671|   -5.326794|   -3.339447|
|          28|   -4.389857|   -3.881501|   -5.349739|   -3.341453|
|          29|   -4.397907|   -3.886333|   -5.376375|   -3.343454|
|          30|   -4.405747|   -3.891138|   -5.400360|   -3.345467|
|          31|   -4.413288|   -3.895884|   -5.419008|   -3.347520|
|          32|   -4.420458|   -3.900546|   -5.432964|   -3.349598|
|          33|   -4.427217|   -3.905107|   -5.444263|   -3.351643|
|          34|   -4.433558|   -3.909557|   -5.454578|   -3.353674|
|          35|   -4.439492|   -3.913892|   -5.464773|   -3.355703|
|          36|   -4.445039|   -3.918106|   -5.475152|   -3.357742|
|          37|   -4.450217|   -3.922207|   -5.485708|   -3.359810|
|          38|   -4.455034|   -3.926198|   -5.496241|   -3.361908|
|          39|   -4.459494|   -3.930072|   -5.506398|   -3.364016|
|          40|   -4.463596|   -3.933829|   -5.515745|   -3.366129|
|          41|   -4.467340|   -3.937474|   -5.523987|   -3.368271|
|          42|   -4.470728|   -3.941005|   -5.530964|   -3.370422|
|          43|   -4.473764|   -3.944429|   -5.536673|   -3.372596|
|          44|   -4.476455|   -3.947754|   -5.541324|   -3.374796|
|          45|   -4.478810|   -3.950981|   -5.545249|   -3.377019|
|          46|   -4.480838|   -3.954119|   -5.548777|   -3.379240|
|          47|   -4.482546|   -3.957154|   -5.552136|   -3.381451|
|          48|   -4.483944|   -3.960102|   -5.555419|   -3.383671|
|          49|   -4.485040|   -3.962985|   -5.558622|   -3.385910|
|          50|   -4.485850|   -3.965807|   -5.561730|   -3.388196|
|          51|   -4.486391|   -3.968569|   -5.564718|   -3.390498|
|          52|   -4.486688|   -3.971271|   -5.567572|   -3.392801|
|          53|   -4.486773|   -3.973913|   -5.570313|   -3.395084|
|          54|   -4.486685|   -3.976489|   -5.572991|   -3.397356|
|          55|   -4.486470|   -3.978996|   -5.575684|   -3.399629|
|          56|   -4.486179|   -3.981424|   -5.578479|   -3.401911|
|          57|   -4.485870|   -3.983759|   -5.581435|   -3.404205|
|          58|   -4.485606|   -3.986010|   -5.584571|   -3.406504|
|          59|   -4.485451|   -3.988184|   -5.587893|   -3.408798|
|          60|   -4.485477|   -3.990279|   -5.591410|   -3.411075|
|          61|   -4.485754|   -3.992307|   -5.595109|   -3.413351|
|          62|   -4.486357|   -3.994282|   -5.598956|   -3.415628|
|          63|   -4.487362|   -3.996231|   -5.602912|   -3.417911|
|          64|   -4.488843|   -3.998177|   -5.606943|   -3.420199|
|          65|   -4.490873|   -4.000150|   -5.611014|   -3.422488|
|          66|   -4.493516|   -4.002184|   -5.615086|   -3.424764|
|          67|   -4.496830|   -4.004315|   -5.619081|   -3.427033|
|          68|   -4.500854|   -4.006577|   -5.622865|   -3.429298|
|          69|   -4.505611|   -4.009009|   -5.626263|   -3.431565|
|          70|   -4.511096|   -4.011652|   -5.629093|   -3.433836|
|          71|   -4.517274|   -4.014544|   -5.631208|   -3.436107|
|          72|   -4.524073|   -4.017716|   -5.632513|   -3.438370|
|          73|   -4.531375|   -4.021196|   -5.632978|   -3.440617|
|          74|   -4.539016|   -4.025001|   -5.632638|   -3.442854|
|          75|   -4.546785|   -4.029148|   -5.631591|   -3.445080|
|          76|   -4.554426|   -4.033650|   -5.629992|   -3.447297|
|          77|   -4.561648|   -4.038510|   -5.628051|   -3.449506|
|          78|   -4.568147|   -4.043721|   -5.626014|   -3.451699|
|          79|   -4.573626|   -4.049270|   -5.624139|   -3.453869|
|          80|   -4.577826|   -4.055133|   -5.622675|   -3.456015|
|          81|   -4.580559|   -4.061277|   -5.621843|   -3.458140|
|          82|   -4.581731|   -4.067661|   -5.621818|   -3.460243|
|          83|   -4.581354|   -4.074234|   -5.622729|   -3.462325|
|          84|   -4.579550|   -4.080940|   -5.624649|   -3.464385|
|          85|   -4.576533|   -4.087686|   -5.627589|   -3.466416|
|          86|   -4.572579|   -4.094391|   -5.631477|   -3.468417|
|          87|   -4.568005|   -4.101008|   -5.636177|   -3.470387|
|          88|   -4.563131|   -4.107489|   -5.641530|   -3.472324|
|          89|   -4.558261|   -4.113755|   -5.647363|   -3.474225|
|          90|   -4.553665|   -4.119764|   -5.653447|   -3.476086|
|          91|   -4.549571|   -4.125465|   -5.659516|   -3.477904|
|          92|   -4.546165|   -4.130815|   -5.665302|   -3.479676|
|          93|   -4.543588|   -4.135785|   -5.670570|   -3.481398|
|          94|   -4.541943|   -4.140362|   -5.675135|   -3.483069|
|          95|   -4.541300|   -4.144541|   -5.678867|   -3.484687|
|          96|   -4.541703|   -4.148320|   -5.681720|   -3.486254|
|          97|   -4.543173|   -4.151725|   -5.683725|   -3.487772|
|          98|   -4.545716|   -4.154786|   -5.684974|   -3.489244|
|          99|   -4.549330|   -4.157534|   -5.685602|   -3.490675|
|         100|   -4.554001|   -4.160008|   -5.685786|   -3.492074|
|         101|   -4.559713|   -4.162247|   -5.685718|   -3.493448|
|         102|   -4.566446|   -4.164287|   -5.685574|   -3.494808|
|         103|   -4.574185|   -4.166168|   -5.686000|   -3.496164|
|         104|   -4.582907|   -4.167912|   -5.685738|   -3.497526|
|         105|   -4.592561|   -4.169548|   -5.685145|   -3.498904|
|         106|   -4.603102|   -4.171099|   -5.685207|   -3.500307|
|         107|   -4.614467|   -4.172587|   -5.686196|   -3.501746|
|         108|   -4.626574|   -4.174032|   -5.687979|   -3.503229|
|         109|   -4.639313|   -4.175448|   -5.690258|   -3.504762|
|         110|   -4.652544|   -4.176841|   -5.692288|   -3.506352|
|         111|   -4.666071|   -4.178240|   -5.694438|   -3.508003|
|         112|   -4.679651|   -4.179653|   -5.696744|   -3.509720|
|         113|   -4.692990|   -4.181101|   -5.699191|   -3.511506|
|         114|   -4.705742|   -4.182600|   -5.701718|   -3.513364|
|         115|   -4.717526|   -4.184156|   -5.704252|   -3.515299|
|         116|   -4.727944|   -4.185777|   -5.706731|   -3.517315|
|         117|   -4.736617|   -4.187484|   -5.708851|   -3.519417|
|         118|   -4.743218|   -4.189282|   -5.710799|   -3.521614|
|         119|   -4.747517|   -4.191177|   -5.712788|   -3.523913|
|         120|   -4.749416|   -4.193173|   -5.714852|   -3.526327|
|         121|   -4.748964|   -4.195262|   -5.716976|   -3.528869|
|         122|   -4.746352|   -4.197450|   -5.719140|   -3.531554|
|         123|   -4.741887|   -4.199741|   -5.721367|   -3.534401|
|         124|   -4.735950|   -4.202138|   -5.723550|   -3.537423|
|         125|   -4.728958|   -4.204633|   -5.725809|   -3.540647|
|         126|   -4.721324|   -4.207192|   -5.728264|   -3.544097|
|         127|   -4.713428|   -4.209800|   -5.730854|   -3.547795|
|         128|   -4.705606|   -4.212441|   -5.733585|   -3.551766|
|         129|   -4.698133|   -4.215091|   -5.736483|   -3.556033|
|         130|   -4.691234|   -4.217722|   -5.739600|   -3.560619|
|         131|   -4.685078|   -4.220315|   -5.742997|   -3.565547|
|         132|   -4.679786|   -4.222856|   -5.746725|   -3.570842|
|         133|   -4.675442|   -4.225326|   -5.750790|   -3.576521|
|         134|   -4.672092|   -4.227710|   -5.755170|   -3.582605|
|         135|   -4.669757|   -4.229999|   -5.759839|   -3.589110|
|         136|   -4.668434|   -4.232187|   -5.764772|   -3.596052|
|         137|   -4.668105|   -4.234275|   -5.769422|   -3.603442|
|         138|   -4.668727|   -4.236256|   -5.774247|   -3.611291|
|         139|   -4.670250|   -4.238135|   -5.779392|   -3.619606|
|         140|   -4.672607|   -4.239917|   -5.784842|   -3.628392|
|         141|   -4.675727|   -4.241607|   -5.790276|   -3.637650|
|         142|   -4.679532|   -4.243206|   -5.795867|   -3.647377|
|         143|   -4.683940|   -4.244733|   -5.801607|   -3.657573|
|         144|   -4.688864|   -4.246201|   -5.807380|   -3.668232|
|         145|   -4.694220|   -4.247627|   -5.812972|   -3.679346|
|         146|   -4.699924|   -4.249031|   -5.818215|   -3.690901|
|         147|   -4.705901|   -4.250427|   -5.823052|   -3.702882|
|         148|   -4.712082|   -4.251829|   -5.827475|   -3.715269|
|         149|   -4.718408|   -4.253250|   -5.831493|   -3.728040|
|         150|   -4.724830|   -4.254701|   -5.835127|   -3.741169|
|         151|   -4.731311|   -4.256195|   -5.838402|   -3.754628|
|         152|   -4.737828|   -4.257740|   -5.841341|   -3.768385|
|         153|   -4.744366|   -4.259345|   -5.843956|   -3.782403|
|         154|   -4.750927|   -4.261018|   -5.846265|   -3.796645|
|         155|   -4.757518|   -4.262767|   -5.848290|   -3.811068|
|         156|   -4.764161|   -4.264597|   -5.850070|   -3.825629|
|         157|   -4.770878|   -4.266513|   -5.851655|   -3.840282|
|         158|   -4.777698|   -4.268523|   -5.853097|   -3.854979|
|         159|   -4.784649|   -4.270635|   -5.854445|   -3.869671|
|         160|   -4.791754|   -4.272859|   -5.855735|   -3.884309|
|         161|   -4.799034|   -4.275206|   -5.857000|   -3.898845|
|         162|   -4.806498|   -4.277690|   -5.858268|   -3.913231|
|         163|   -4.814146|   -4.280328|   -5.859576|   -3.927420|
|         164|   -4.821964|   -4.283140|   -5.860964|   -3.941368|
|         165|   -4.829924|   -4.286150|   -5.862482|   -3.955039|
|         166|   -4.837977|   -4.289389|   -5.864177|   -3.968398|
|         167|   -4.846063|   -4.292865|   -5.866124|   -3.981413|
|         168|   -4.854104|   -4.296601|   -5.868342|   -3.994056|
|         169|   -4.862014|   -4.300604|   -5.870781|   -4.006308|
|         170|   -4.869687|   -4.304904|   -5.873454|   -4.018163|
|         171|   -4.877009|   -4.309520|   -5.876516|   -4.029605|
|         172|   -4.883869|   -4.314482|   -5.879771|   -4.040630|
|         173|   -4.890158|   -4.319808|   -5.883225|   -4.051234|
|         174|   -4.895783|   -4.325516|   -5.886941|   -4.061423|
|         175|   -4.900671|   -4.331605|   -5.890993|   -4.071209|
|         176|   -4.904777|   -4.338085|   -5.895247|   -4.080602|
|         177|   -4.908095|   -4.344943|   -5.900057|   -4.089616|
|         178|   -4.910652|   -4.352165|   -5.905319|   -4.098269|
|         179|   -4.912519|   -4.359721|   -5.910931|   -4.106581|
|         180|   -4.913798|   -4.367570|   -5.916805|   -4.114571|
|         181|   -4.914625|   -4.375656|   -5.922870|   -4.122259|
|         182|   -4.915159|   -4.383907|   -5.929070|   -4.129667|
|         183|   -4.915575|   -4.392241|   -5.935340|   -4.136812|
|         184|   -4.916058|   -4.400560|   -5.941598|   -4.143711|
|         185|   -4.916794|   -4.408754|   -5.947748|   -4.150382|
|         186|   -4.917967|   -4.416705|   -5.953673|   -4.156840|
|         187|   -4.919752|   -4.424292|   -5.959244|   -4.163100|
|         188|   -4.922312|   -4.431394|   -5.964323|   -4.169174|
|         189|   -4.925799|   -4.437898|   -5.968770|   -4.175075|
|         190|   -4.930351|   -4.443711|   -5.972458|   -4.180813|
|         191|   -4.936089|   -4.448756|   -5.975303|   -4.186395|
|         192|   -4.943126|   -4.452989|   -5.977245|   -4.191829|
|         193|   -4.951558|   -4.456398|   -5.978269|   -4.197122|
|         194|   -4.961468|   -4.459006|   -5.978405|   -4.202279|
|         195|   -4.972928|   -4.460872|   -5.977731|   -4.207304|
|         196|   -4.985995|   -4.462085|   -5.976359|   -4.212203|
|         197|   -5.000711|   -4.462759|   -5.974432|   -4.216979|
|         198|   -5.017097|   -4.463025|   -5.972107|   -4.221640|
|         199|   -5.035154|   -4.463027|   -5.969561|   -4.226191|
|         200|   -5.054852|   -4.462910|   -5.966973|   -4.230636|
|         201|   -5.076124|   -4.462818|   -5.964524|   -4.234981|
|         202|   -5.098849|   -4.462889|   -5.962377|   -4.239231|
|         203|   -5.122842|   -4.463245|   -5.960678|   -4.243390|
|         204|   -5.147832|   -4.463996|   -5.959551|   -4.247465|
|         205|   -5.173444|   -4.465237|   -5.959098|   -4.251461|
|         206|   -5.199175|   -4.467042|   -5.959398|   -4.255385|
|         207|   -5.224388|   -4.469474|   -5.960513|   -4.259243|
|         208|   -5.248318|   -4.472575|   -5.962485|   -4.263043|
|         209|   -5.270113|   -4.476376|   -5.965337|   -4.266792|
|         210|   -5.288912|   -4.480890|   -5.969069|   -4.270497|
|         211|   -5.303968|   -4.486119|   -5.973665|   -4.274163|
|         212|   -5.314777|   -4.492049|   -5.979128|   -4.277796|
|         213|   -5.321175|   -4.498660|   -5.985382|   -4.281400|
|         214|   -5.323366|   -4.505924|   -5.992313|   -4.284981|
|         215|   -5.321873|   -4.513801|   -5.999929|   -4.288540|
|         216|   -5.317406|   -4.522247|   -6.008039|   -4.292082|
|         217|   -5.310746|   -4.531208|   -6.016551|   -4.295609|
|         218|   -5.302631|   -4.540633|   -6.025381|   -4.299122|
|         219|   -5.293687|   -4.550472|   -6.034449|   -4.302621|
|         220|   -5.284403|   -4.560673|   -6.043668|   -4.306107|
|         221|   -5.275131|   -4.571183|   -6.052958|   -4.309580|
|         222|   -5.266107|   -4.581956|   -6.062248|   -4.313041|
|         223|   -5.257465|   -4.592951|   -6.071483|   -4.316491|
|         224|   -5.249268|   -4.604133|   -6.080638|   -4.319930|
|         225|   -5.241521|   -4.615469|   -6.089668|   -4.323359|
|         226|   -5.234200|   -4.626934|   -6.098537|   -4.326780|
|         227|   -5.227256|   -4.638508|   -6.107218|   -4.330195|
|         228|   -5.220635|   -4.650171|   -6.115699|   -4.333604|
|         229|   -5.214279|   -4.661909|   -6.124023|   -4.337010|
|         230|   -5.208143|   -4.673714|   -6.132255|   -4.340415|
|         231|   -5.202188|   -4.685560|   -6.140479|   -4.343823|
|         232|   -5.196397|   -4.697420|   -6.148776|   -4.347236|
|         233|   -5.190768|   -4.709261|   -6.157212|   -4.350659|
|         234|   -5.185314|   -4.721039|   -6.165853|   -4.354094|
|         235|   -5.180068|   -4.732690|   -6.174770|   -4.357547|
|         236|   -5.175074|   -4.744139|   -6.184013|   -4.361021|
|         237|   -5.170388|   -4.755295|   -6.193624|   -4.364522|
|         238|   -5.166074|   -4.766052|   -6.203635|   -4.368053|
|         239|   -5.162205|   -4.776291|   -6.214062|   -4.371621|
|         240|   -5.158853|   -4.785887|   -6.224916|   -4.375230|
|         241|   -5.156097|   -4.794704|   -6.236248|   -4.378885|
|         242|   -5.154012|   -4.802614|   -6.248031|   -4.382591|
|         243|   -5.152676|   -4.809500|   -6.260241|   -4.386353|
|         244|   -5.152165|   -4.815266|   -6.272850|   -4.390176|
|         245|   -5.152554|   -4.819848|   -6.285828|   -4.394065|
|         246|   -5.153918|   -4.823216|   -6.299132|   -4.398025|
|         247|   -5.156330|   -4.825382|   -6.312699|   -4.402059|
|         248|   -5.159863|   -4.826398|   -6.326428|   -4.406172|
|         249|   -5.164593|   -4.826354|   -6.340170|   -4.410368|
|         250|   -5.170595|   -4.825373|   -6.353722|   -4.414649|
|         251|   -5.177944|   -4.823603|   -6.366837|   -4.419019|
|         252|   -5.186718|   -4.821209|   -6.379229|   -4.423480|
|         253|   -5.196997|   -4.818365|   -6.390590|   -4.428033|
|         254|   -5.208861|   -4.815249|   -6.400613|   -4.432680|
|         255|   -5.222388|   -4.812034|   -6.409011|   -4.437419|
|         256|   -5.237652|   -4.808885|   -6.415550|   -4.442251|
|         257|   -5.254720|   -4.805959|   -6.420075|   -4.447173|
|         258|   -5.273641|   -4.803397|   -6.422533|   -4.452184|
|         259|   -5.294436|   -4.801331|   -6.422985|   -4.457277|
|         260|   -5.317078|   -4.799880|   -6.421601|   -4.462450|
|         261|   -5.341462|   -4.799154|   -6.418648|   -4.467696|
|         262|   -5.367366|   -4.799249|   -6.414448|   -4.473007|
|         263|   -5.394389|   -4.800250|   -6.409408|   -4.478376|
|         264|   -5.421875|   -4.802240|   -6.403928|   -4.483795|
|         265|   -5.448822|   -4.805302|   -6.398399|   -4.489253|
|         266|   -5.473825|   -4.809512|   -6.393163|   -4.494740|
|         267|   -5.495090|   -4.814935|   -6.388516|   -4.500247|
|         268|   -5.510634|   -4.821638|   -6.384715|   -4.505761|
|         269|   -5.518701|   -4.829701|   -6.381982|   -4.511272|
|         270|   -5.518286|   -4.839192|   -6.380495|   -4.516768|
|         271|   -5.509512|   -4.850188|   -6.380401|   -4.522240|
|         272|   -5.493580|   -4.862768|   -6.381792|   -4.527676|
|         273|   -5.472346|   -4.877009|   -6.384712|   -4.533068|
|         274|   -5.447798|   -4.892996|   -6.389191|   -4.538407|
|         275|   -5.421674|   -4.910812|   -6.395362|   -4.543684|
|         276|   -5.395314|   -4.930547|   -6.403299|   -4.548893|
|         277|   -5.369658|   -4.952295|   -6.413039|   -4.554028|
|         278|   -5.345317|   -4.976154|   -6.424590|   -4.559084|
|         279|   -5.322660|   -5.002232|   -6.437921|   -4.564058|
|         280|   -5.301892|   -5.030633|   -6.452980|   -4.568947|
|         281|   -5.283102|   -5.061442|   -6.469662|   -4.573753|
|         282|   -5.266309|   -5.094732|   -6.487749|   -4.578473|
|         283|   -5.251487|   -5.130528|   -6.506949|   -4.583110|
|         284|   -5.238580|   -5.168773|   -6.526883|   -4.587666|
|         285|   -5.227513|   -5.209274|   -6.547098|   -4.592145|
|         286|   -5.218203|   -5.251599|   -6.567016|   -4.596549|
|         287|   -5.210557|   -5.294942|   -6.585955|   -4.600885|
|         288|   -5.204479|   -5.337936|   -6.603169|   -4.605156|
|         289|   -5.199870|   -5.378487|   -6.617922|   -4.609370|
|         290|   -5.196627|   -5.413751|   -6.629580|   -4.613532|
|         291|   -5.194644|   -5.440516|   -6.637725|   -4.617649|
|         292|   -5.193816|   -5.456113|   -6.642219|   -4.621728|
|         293|   -5.194032|   -5.459535|   -6.643222|   -4.625775|
|         294|   -5.195181|   -5.451918|   -6.641178|   -4.629799|
|         295|   -5.197151|   -5.435967|   -6.636729|   -4.633806|
|         296|   -5.199829|   -5.414829|   -6.630605|   -4.637804|
|         297|   -5.203101|   -5.391208|   -6.623520|   -4.641800|
|         298|   -5.206856|   -5.367045|   -6.616110|   -4.645802|
|         299|   -5.210988|   -5.343553|   -6.608894|   -4.649816|
|         300|   -5.215395|   -5.321400|   -6.602259|   -4.653849|
|         301|   -5.219984|   -5.300887|   -6.596443|   -4.657908|
|         302|   -5.224673|   -5.282084|   -6.591623|   -4.661997|
|         303|   -5.229392|   -5.264919|   -6.587925|   -4.666123|
|         304|   -5.234082|   -5.249240|   -6.585415|   -4.670290|
|         305|   -5.238703|   -5.234831|   -6.584081|   -4.674501|
|         306|   -5.243229|   -5.221499|   -6.583829|   -4.678759|
|         307|   -5.247648|   -5.209035|   -6.584566|   -4.683066|
|         308|   -5.251963|   -5.197232|   -6.586176|   -4.687423|
|         309|   -5.256187|   -5.185902|   -6.588520|   -4.691829|
|         310|   -5.260346|   -5.174876|   -6.591436|   -4.696283|
|         311|   -5.264472|   -5.164012|   -6.594744|   -4.700782|
|         312|   -5.268601|   -5.153196|   -6.598275|   -4.705322|
|         313|   -5.272776|   -5.142347|   -6.601876|   -4.709900|
|         314|   -5.277036|   -5.131411|   -6.605418|   -4.714509|
|         315|   -5.281423|   -5.120364|   -6.608796|   -4.719144|
|         316|   -5.285974|   -5.109202|   -6.611913|   -4.723797|
|         317|   -5.290723|   -5.097941|   -6.614697|   -4.728462|
|         318|   -5.295702|   -5.086598|   -6.617104|   -4.733131|
|         319|   -5.300936|   -5.075226|   -6.619137|   -4.737796|
|         320|   -5.306447|   -5.063876|   -6.620824|   -4.742450|
|         321|   -5.312255|   -5.052599|   -6.622201|   -4.747086|
|         322|   -5.318372|   -5.041440|   -6.623304|   -4.751697|
|         323|   -5.324813|   -5.030444|   -6.624180|   -4.756277|
|         324|   -5.331587|   -5.019650|   -6.624883|   -4.760821|
|         325|   -5.338705|   -5.009091|   -6.625472|   -4.765324|
|         326|   -5.346176|   -4.998796|   -6.626006|   -4.769782|
|         327|   -5.354010|   -4.988786|   -6.626538|   -4.774193|
|         328|   -5.362219|   -4.979081|   -6.627105|   -4.778555|
|         329|   -5.370815|   -4.969692|   -6.627714|   -4.782867|
|         330|   -5.379812|   -4.960631|   -6.628365|   -4.787129|
|         331|   -5.389225|   -4.951908|   -6.629052|   -4.791342|
|         332|   -5.399068|   -4.943526|   -6.629771|   -4.795507|
|         333|   -5.409356|   -4.935495|   -6.630510|   -4.799626|
|         334|   -5.420101|   -4.927824|   -6.631235|   -4.803700|
|         335|   -5.431311|   -4.920515|   -6.631908|   -4.807732|
|         336|   -5.442987|   -4.913573|   -6.632495|   -4.811724|
|         337|   -5.455119|   -4.907005|   -6.632966|   -4.815678|
|         338|   -5.467680|   -4.900830|   -6.633302|   -4.819596|
|         339|   -5.480628|   -4.895070|   -6.633469|   -4.823480|
|         340|   -5.493895|   -4.889739|   -6.633427|   -4.827332|
|         341|   -5.507382|   -4.884852|   -6.633163|   -4.831153|
|         342|   -5.520954|   -4.880427|   -6.632699|   -4.834944|
|         343|   -5.534431|   -4.876481|   -6.632085|   -4.838707|
|         344|   -5.547581|   -4.873035|   -6.631402|   -4.842441|
|         345|   -5.560124|   -4.870105|   -6.630736|   -4.846148|
|         346|   -5.571725|   -4.867711|   -6.630165|   -4.849827|
|         347|   -5.582012|   -4.865872|   -6.629772|   -4.853480|
|         348|   -5.590591|   -4.864605|   -6.629647|   -4.857107|
|         349|   -5.597081|   -4.863926|   -6.629889|   -4.860709|
|         350|   -5.601146|   -4.863850|   -6.630601|   -4.864287|
|         351|   -5.602546|   -4.864389|   -6.631892|   -4.867844|
|         352|   -5.601164|   -4.865551|   -6.633868|   -4.871381|
|         353|   -5.597029|   -4.867342|   -6.636629|   -4.874900|
|         354|   -5.590318|   -4.869762|   -6.640265|   -4.878407|
|         355|   -5.581330|   -4.872807|   -6.644867|   -4.881903|
|         356|   -5.570451|   -4.876466|   -6.650524|   -4.885393|
|         357|   -5.558115|   -4.880721|   -6.657317|   -4.888884|
|         358|   -5.544763|   -4.885546|   -6.665323|   -4.892378|
|         359|   -5.530813|   -4.890904|   -6.674610|   -4.895883|
|         360|   -5.516645|   -4.896748|   -6.685237|   -4.899404|
|         361|   -5.502586|   -4.903017|   -6.697247|   -4.902946|
|         362|   -5.488913|   -4.909639|   -6.710668|   -4.906514|
|         363|   -5.475855|   -4.916523|   -6.725497|   -4.910115|
|         364|   -5.463595|   -4.923567|   -6.741697|   -4.913753|
|         365|   -5.452281|   -4.930649|   -6.759176|   -4.917431|
|         366|   -5.442030|   -4.937637|   -6.777768|   -4.921152|
|         367|   -5.432936|   -4.944384|   -6.797206|   -4.924919|
|         368|   -5.425071|   -4.950737|   -6.817088|   -4.928731|
|         369|   -5.418495|   -4.956537|   -6.836849|   -4.932589|
|         370|   -5.413256|   -4.961632|   -6.855730|   -4.936490|
|         371|   -5.409394|   -4.965881|   -6.872782|   -4.940430|
|         372|   -5.406943|   -4.969168|   -6.886918|   -4.944404|
|         373|   -5.405933|   -4.971401|   -6.897033|   -4.948406|
|         374|   -5.406391|   -4.972531|   -6.902194|   -4.952426|
|         375|   -5.408343|   -4.972548|   -6.901846|   -4.956456|
|         376|   -5.411813|   -4.971483|   -6.895962|   -4.960483|
|         377|   -5.416824|   -4.969412|   -6.885050|   -4.964497|
|         378|   -5.423399|   -4.966442|   -6.870022|   -4.968483|
|         379|   -5.431557|   -4.962711|   -6.851993|   -4.972429|
|         380|   -5.441318|   -4.958375|   -6.832081|   -4.976320|
|         381|   -5.452695|   -4.953600|   -6.811277|   -4.980144|
|         382|   -5.465694|   -4.948554|   -6.790387|   -4.983886|
|         383|   -5.480311|   -4.943401|   -6.770022|   -4.987535|
|         384|   -5.496524|   -4.938297|   -6.750626|   -4.991078|
|         385|   -5.514285|   -4.933381|   -6.732503|   -4.994508|
|         386|   -5.533512|   -4.928781|   -6.715855|   -4.997815|
|         387|   -5.554067|   -4.924607|   -6.700807|   -5.000994|
|         388|   -5.575739|   -4.920956|   -6.687429|   -5.004040|
|         389|   -5.598217|   -4.917907|   -6.675751|   -5.006953|
|         390|   -5.621057|   -4.915526|   -6.665780|   -5.009733|
|         391|   -5.643655|   -4.913869|   -6.657503|   -5.012383|
|         392|   -5.665222|   -4.912978|   -6.650894|   -5.014907|
|         393|   -5.684791|   -4.912887|   -6.645921|   -5.017313|
|         394|   -5.701278|   -4.913618|   -6.642543|   -5.019608|
|         395|   -5.713597|   -4.915186|   -6.640719|   -5.021802|
|         396|   -5.720846|   -4.917603|   -6.640408|   -5.023905|
|         397|   -5.722505|   -4.920872|   -6.641561|   -5.025928|
|         398|   -5.718556|   -4.924992|   -6.644125|   -5.027882|
|         399|   -5.709491|   -4.929952|   -6.648040|   -5.029777|
|         400|   -5.696175|   -4.935742|   -6.653247|   -5.031624|
|         401|   -5.679657|   -4.942344|   -6.659683|   -5.033432|
|         402|   -5.660984|   -4.949737|   -6.667283|   -5.035210|
|         403|   -5.641081|   -4.957895|   -6.675979|   -5.036966|
|         404|   -5.620697|   -4.966786|   -6.685692|   -5.038705|
|         405|   -5.600399|   -4.976371|   -6.696330|   -5.040435|
|         406|   -5.580592|   -4.986608|   -6.707805|   -5.042159|
|         407|   -5.561549|   -4.997445|   -6.720031|   -5.043881|
|         408|   -5.543448|   -5.008828|   -6.732924|   -5.045605|
|         409|   -5.526391|   -5.020696|   -6.746399|   -5.047331|
|         410|   -5.510429|   -5.032976|   -6.760359|   -5.049062|
|         411|   -5.495580|   -5.045585|   -6.774701|   -5.050799|
|         412|   -5.481835|   -5.058432|   -6.789329|   -5.052544|
|         413|   -5.469174|   -5.071416|   -6.804157|   -5.054298|
|         414|   -5.457567|   -5.084427|   -6.819111|   -5.056064|
|         415|   -5.446979|   -5.097344|   -6.834135|   -5.057844|
|         416|   -5.437374|   -5.110036|   -6.849180|   -5.059642|
|         417|   -5.428717|   -5.122363|   -6.864213|   -5.061463|
|         418|   -5.420977|   -5.134182|   -6.879210|   -5.063311|
|         419|   -5.414125|   -5.145343|   -6.894156|   -5.065193|
|         420|   -5.408136|   -5.155702|   -6.909043|   -5.067118|
|         421|   -5.402990|   -5.165119|   -6.923860|   -5.069092|
|         422|   -5.398670|   -5.173468|   -6.938590|   -5.071127|
|         423|   -5.395167|   -5.180641|   -6.953201|   -5.073232|
|         424|   -5.392473|   -5.186557|   -6.967634|   -5.075419|
|         425|   -5.390588|   -5.191164|   -6.981791|   -5.077699|
|         426|   -5.389512|   -5.194446|   -6.995535|   -5.080085|
|         427|   -5.389254|   -5.196418|   -7.008672|   -5.082589|
|         428|   -5.389823|   -5.197132|   -7.020926|   -5.085223|
|         429|   -5.391234|   -5.196672|   -7.031950|   -5.087998|
|         430|   -5.393502|   -5.195147|   -7.041353|   -5.090928|
|         431|   -5.396649|   -5.192688|   -7.048719|   -5.094022|
|         432|   -5.400697|   -5.189438|   -7.053641|   -5.097292|
|         433|   -5.405670|   -5.185546|   -7.055783|   -5.100745|
|         434|   -5.411594|   -5.181167|   -7.054926|   -5.104390|
|         435|   -5.418499|   -5.176452|   -7.051001|   -5.108234|
|         436|   -5.426411|   -5.171547|   -7.044101|   -5.112281|
|         437|   -5.435361|   -5.166588|   -7.034472|   -5.116534|
|         438|   -5.445375|   -5.161704|   -7.022494|   -5.120995|
|         439|   -5.456480|   -5.157011|   -7.008635|   -5.125663|
|         440|   -5.468699|   -5.152616|   -6.993403|   -5.130535|
|         441|   -5.482049|   -5.148613|   -6.977302|   -5.135606|
|         442|   -5.496540|   -5.145090|   -6.960794|   -5.140868|
|         443|   -5.512170|   -5.142125|   -6.944275|   -5.146311|
|         444|   -5.528922|   -5.139787|   -6.928081|   -5.151923|
|         445|   -5.546753|   -5.138141|   -6.912497|   -5.157688|
|         446|   -5.565593|   -5.137243|   -6.897741|   -5.163589|
|         447|   -5.585325|   -5.137149|   -6.883984|   -5.169606|
|         448|   -5.605780|   -5.137907|   -6.871369|   -5.175715|
|         449|   -5.626716|   -5.139564|   -6.860009|   -5.181891|
|         450|   -5.647801|   -5.142165|   -6.849991|   -5.188109|
|         451|   -5.668601|   -5.145753|   -6.841387|   -5.194338|
|         452|   -5.688568|   -5.150373|   -6.834250|   -5.200548|
|         453|   -5.707046|   -5.156064|   -6.828622|   -5.206708|
|         454|   -5.723305|   -5.162872|   -6.824537|   -5.212786|
|         455|   -5.736602|   -5.170845|   -6.822021|   -5.218751|
|         456|   -5.746274|   -5.180028|   -6.821097|   -5.224571|
|         457|   -5.751849|   -5.190473|   -6.821789|   -5.230218|
|         458|   -5.753135|   -5.202232|   -6.824122|   -5.235664|
|         459|   -5.750261|   -5.215363|   -6.828129|   -5.240886|
|         460|   -5.743649|   -5.229934|   -6.833861|   -5.245863|
|         461|   -5.733930|   -5.246030|   -6.841390|   -5.250578|
|         462|   -5.721840|   -5.263754|   -6.850755|   -5.255021|
|         463|   -5.708121|   -5.283177|   -6.861943|   -5.259185|
|         464|   -5.693448|   -5.304376|   -6.874958|   -5.263069|
|         465|   -5.678394|   -5.327459|   -6.889828|   -5.266677|
|         466|   -5.663419|   -5.352536|   -6.906594|   -5.270017|
|         467|   -5.648872|   -5.379729|   -6.925281|   -5.273103|
|         468|   -5.635013|   -5.409177|   -6.945907|   -5.275953|
|         469|   -5.622022|   -5.441009|   -6.968435|   -5.278589|
|         470|   -5.610020|   -5.475345|   -6.992783|   -5.281034|
|         471|   -5.599084|   -5.512275|   -7.018817|   -5.283317|
|         472|   -5.589252|   -5.551820|   -7.046322|   -5.285467|
|         473|   -5.580540|   -5.593859|   -7.074963|   -5.287512|
|         474|   -5.572942|   -5.638004|   -7.104227|   -5.289485|
|         475|   -5.566439|   -5.683406|   -7.133374|   -5.291414|
|         476|   -5.561001|   -5.728453|   -7.161396|   -5.293329|
|         477|   -5.556589|   -5.770441|   -7.187015|   -5.295259|
|         478|   -5.553160|   -5.805445|   -7.208775|   -5.297228|
|         479|   -5.550665|   -5.828892|   -7.225248|   -5.299262|
|         480|   -5.549050|   -5.837198|   -7.235345|   -5.301383|
|         481|   -5.548262|   -5.829666|   -7.238619|   -5.303610|
|         482|   -5.548241|   -5.808908|   -7.235404|   -5.305960|
|         483|   -5.548929|   -5.779313|   -7.226707|   -5.308448|
|         484|   -5.550266|   -5.745131|   -7.213914|   -5.311085|
|         485|   -5.552191|   -5.709493|   -7.198482|   -5.313882|
|         486|   -5.554642|   -5.674351|   -7.181709|   -5.316845|
|         487|   -5.557561|   -5.640759|   -7.164615|   -5.319979|
|         488|   -5.560888|   -5.609206|   -7.147938|   -5.323284|
|         489|   -5.564567|   -5.579843|   -7.132179|   -5.326760|
|         490|   -5.568545|   -5.552649|   -7.117665|   -5.330405|
|         491|   -5.572773|   -5.527511|   -7.104583|   -5.334213|
|         492|   -5.577208|   -5.504268|   -7.093009|   -5.338175|
|         493|   -5.581811|   -5.482746|   -7.082947|   -5.342283|
|         494|   -5.586550|   -5.462767|   -7.074355|   -5.346524|
|         495|   -5.591401|   -5.444168|   -7.067185|   -5.350885|
|         496|   -5.596347|   -5.426791|   -7.061351|   -5.355350|
|         497|   -5.601377|   -5.410499|   -7.056763|   -5.359902|
|         498|   -5.606490|   -5.395167|   -7.053298|   -5.364522|
|         499|   -5.611689|   -5.380682|   -7.050813|   -5.369189|
|         500|   -5.616988|   -5.366946|   -7.049164|   -5.373883|
|         501|   -5.622402|   -5.353873|   -7.048222|   -5.378581|
|         502|   -5.627955|   -5.341390|   -7.047857|   -5.383260|
|         503|   -5.633674|   -5.329437|   -7.047934|   -5.387898|
|         504|   -5.639588|   -5.317963|   -7.048311|   -5.392471|
|         505|   -5.645729|   -5.306929|   -7.048849|   -5.396957|
|         506|   -5.652131|   -5.296303|   -7.049425|   -5.401334|
|         507|   -5.658826|   -5.286061|   -7.049937|   -5.405581|
|         508|   -5.665847|   -5.276186|   -7.050288|   -5.409681|
|         509|   -5.673224|   -5.266669|   -7.050404|   -5.413615|
|         510|   -5.680985|   -5.257504|   -7.050222|   -5.417369|
|         511|   -5.689154|   -5.248689|   -7.049701|   -5.420932|
|         512|   -5.697751|   -5.240226|   -7.048821|   -5.424292|
|         513|   -5.706791|   -5.232120|   -7.047576|   -5.427444|
|         514|   -5.716280|   -5.224380|   -7.045974|   -5.430384|
|         515|   -5.726218|   -5.217012|   -7.044043|   -5.433110|
|         516|   -5.736597|   -5.210026|   -7.041828|   -5.435626|
|         517|   -5.747396|   -5.203432|   -7.039387|   -5.437936|
|         518|   -5.758580|   -5.197239|   -7.036780|   -5.440046|
|         519|   -5.770103|   -5.191458|   -7.034060|   -5.441966|
|         520|   -5.781895|   -5.186100|   -7.031283|   -5.443708|
|         521|   -5.793872|   -5.181176|   -7.028511|   -5.445283|
|         522|   -5.805921|   -5.176694|   -7.025813|   -5.446706|
|         523|   -5.817907|   -5.172663|   -7.023253|   -5.447993|
|         524|   -5.829665|   -5.169091|   -7.020890|   -5.449157|
|         525|   -5.841004|   -5.165987|   -7.018781|   -5.450216|
|         526|   -5.851706|   -5.163357|   -7.016989|   -5.451184|
|         527|   -5.861533|   -5.161209|   -7.015566|   -5.452079|
|         528|   -5.870236|   -5.159548|   -7.014562|   -5.452914|
|         529|   -5.877567|   -5.158378|   -7.014024|   -5.453706|
|         530|   -5.883295|   -5.157703|   -7.014002|   -5.454468|
|         531|   -5.887229|   -5.157527|   -7.014544|   -5.455215|
|         532|   -5.889231|   -5.157850|   -7.015705|   -5.455960|
|         533|   -5.889235|   -5.158671|   -7.017540|   -5.456715|
|         534|   -5.887252|   -5.159988|   -7.020101|   -5.457493|
|         535|   -5.883372|   -5.161794|   -7.023433|   -5.458305|
|         536|   -5.877758|   -5.164084|   -7.027576|   -5.459161|
|         537|   -5.870625|   -5.166846|   -7.032569|   -5.460072|
|         538|   -5.862228|   -5.170067|   -7.038452|   -5.461047|
|         539|   -5.852840|   -5.173730|   -7.045266|   -5.462095|
|         540|   -5.842736|   -5.177812|   -7.053049|   -5.463223|
|         541|   -5.832180|   -5.182287|   -7.061833|   -5.464440|
|         542|   -5.821416|   -5.187123|   -7.071644|   -5.465750|
|         543|   -5.810664|   -5.192281|   -7.082493|   -5.467161|
|         544|   -5.800114|   -5.197717|   -7.094374|   -5.468675|
|         545|   -5.789931|   -5.203380|   -7.107256|   -5.470296|
|         546|   -5.780255|   -5.209212|   -7.121081|   -5.472026|
|         547|   -5.771204|   -5.215147|   -7.135752|   -5.473865|
|         548|   -5.762875|   -5.221115|   -7.151121|   -5.475810|
|         549|   -5.755351|   -5.227037|   -7.166975|   -5.477860|
|         550|   -5.748700|   -5.232834|   -7.183024|   -5.480007|
|         551|   -5.742978|   -5.238419|   -7.198879|   -5.482244|
|         552|   -5.738233|   -5.243709|   -7.214051|   -5.484562|
|         553|   -5.734507|   -5.248619|   -7.227942|   -5.486947|
|         554|   -5.731836|   -5.253071|   -7.239880|   -5.489385|
|         555|   -5.730251|   -5.256994|   -7.249167|   -5.491858|
|         556|   -5.729781|   -5.260329|   -7.255168|   -5.494347|
|         557|   -5.730452|   -5.263031|   -7.257407|   -5.496830|
|         558|   -5.732290|   -5.265074|   -7.255648|   -5.499281|
|         559|   -5.735320|   -5.266451|   -7.249939|   -5.501677|
|         560|   -5.739563|   -5.267171|   -7.240601|   -5.503988|
|         561|   -5.745045|   -5.267266|   -7.228174|   -5.506186|
|         562|   -5.751786|   -5.266786|   -7.213327|   -5.508243|
|         563|   -5.759808|   -5.265793|   -7.196749|   -5.510130|
|         564|   -5.769131|   -5.264365|   -7.179100|   -5.511819|
|         565|   -5.779772|   -5.262589|   -7.160966|   -5.513283|
|         566|   -5.791742|   -5.260557|   -7.142836|   -5.514500|
|         567|   -5.805047|   -5.258366|   -7.125094|   -5.515446|
|         568|   -5.819681|   -5.256112|   -7.108035|   -5.516106|
|         569|   -5.835623|   -5.253892|   -7.091871|   -5.516466|
|         570|   -5.852828|   -5.251794|   -7.076753|   -5.516516|
|         571|   -5.871220|   -5.249903|   -7.062785|   -5.516253|
|         572|   -5.890675|   -5.248300|   -7.050034|   -5.515678|
|         573|   -5.911010|   -5.247054|   -7.038542|   -5.514796|
|         574|   -5.931958|   -5.246234|   -7.028332|   -5.513619|
|         575|   -5.953146|   -5.245897|   -7.019418|   -5.512161|
|         576|   -5.974072|   -5.246094|   -7.011798|   -5.510442|
|         577|   -5.994090|   -5.246873|   -7.005470|   -5.508482|
|         578|   -6.012412|   -5.248272|   -7.000421|   -5.506308|
|         579|   -6.028141|   -5.250324|   -6.996637|   -5.503945|
|         580|   -6.040359|   -5.253058|   -6.994105|   -5.501422|
|         581|   -6.048252|   -5.256500|   -6.992807|   -5.498768|
|         582|   -6.051260|   -5.260673|   -6.992727|   -5.496011|
|         583|   -6.049201|   -5.265589|   -6.993844|   -5.493179|
|         584|   -6.042308|   -5.271261|   -6.996139|   -5.490299|
|         585|   -6.031176|   -5.277699|   -6.999599|   -5.487398|
|         586|   -6.016631|   -5.284907|   -7.004207|   -5.484500|
|         587|   -5.999582|   -5.292886|   -7.009946|   -5.481627|
|         588|   -5.980895|   -5.301631|   -7.016798|   -5.478801|
|         589|   -5.961324|   -5.311133|   -7.024748|   -5.476039|
|         590|   -5.941476|   -5.321377|   -7.033785|   -5.473359|
|         591|   -5.921819|   -5.332344|   -7.043899|   -5.470776|
|         592|   -5.902690|   -5.344006|   -7.055077|   -5.468304|
|         593|   -5.884331|   -5.356325|   -7.067309|   -5.465954|
|         594|   -5.866900|   -5.369256|   -7.080579|   -5.463737|
|         595|   -5.850499|   -5.382741|   -7.094869|   -5.461662|
|         596|   -5.835188|   -5.396705|   -7.110157|   -5.459738|
|         597|   -5.820997|   -5.411060|   -7.126416|   -5.457972|
|         598|   -5.807934|   -5.425697|   -7.143619|   -5.456370|
|         599|   -5.795993|   -5.440489|   -7.161742|   -5.454940|
|         600|   -5.785160|   -5.455285|   -7.180751|   -5.453686|
|         601|   -5.775417|   -5.469913|   -7.200605|   -5.452615|
|         602|   -5.766740|   -5.484177|   -7.221246|   -5.451731|
|         603|   -5.759107|   -5.497863|   -7.242594|   -5.451042|
|         604|   -5.752494|   -5.510743|   -7.264538|   -5.450552|
|         605|   -5.746879|   -5.522586|   -7.286930|   -5.450267|
|         606|   -5.742242|   -5.533164|   -7.309569|   -5.450193|
|         607|   -5.738565|   -5.542273|   -7.332198|   -5.450336|
|         608|   -5.735832|   -5.549744|   -7.354483|   -5.450702|
|         609|   -5.734032|   -5.555456|   -7.376010|   -5.451298|
|         610|   -5.733153|   -5.559350|   -7.396275|   -5.452130|
|         611|   -5.733189|   -5.561433|   -7.414691|   -5.453204|
|         612|   -5.734134|   -5.561776|   -7.430626|   -5.454526|
|         613|   -5.735987|   -5.560510|   -7.443440|   -5.456103|
|         614|   -5.738747|   -5.557810|   -7.452565|   -5.457941|
|         615|   -5.742419|   -5.553886|   -7.457594|   -5.460044|
|         616|   -5.747005|   -5.548963|   -7.458351|   -5.462417|
|         617|   -5.752514|   -5.543269|   -7.454926|   -5.465065|
|         618|   -5.758954|   -5.537028|   -7.447662|   -5.467991|
|         619|   -5.766333|   -5.530446|   -7.437095|   -5.471197|
|         620|   -5.774661|   -5.523714|   -7.423873|   -5.474685|
|         621|   -5.783948|   -5.516997|   -7.408671|   -5.478454|
|         622|   -5.794202|   -5.510442|   -7.392132|   -5.482503|
|         623|   -5.805427|   -5.504175|   -7.374823|   -5.486830|
|         624|   -5.817626|   -5.498301|   -7.357225|   -5.491429|
|         625|   -5.830792|   -5.492911|   -7.339725|   -5.496294|
|         626|   -5.844910|   -5.488081|   -7.322628|   -5.501417|
|         627|   -5.859951|   -5.483876|   -7.306170|   -5.506788|
|         628|   -5.875869|   -5.480350|   -7.290530|   -5.512392|
|         629|   -5.892592|   -5.477551|   -7.275840|   -5.518216|
|         630|   -5.910018|   -5.475519|   -7.262202|   -5.524241|
|         631|   -5.928000|   -5.474290|   -7.249688|   -5.530447|
|         632|   -5.946344|   -5.473898|   -7.238353|   -5.536812|
|         633|   -5.964788|   -5.474372|   -7.228238|   -5.543309|
|         634|   -5.983002|   -5.475742|   -7.219374|   -5.549912|
|         635|   -6.000575|   -5.478036|   -7.211786|   -5.556589|
|         636|   -6.017022|   -5.481282|   -7.205493|   -5.563309|
|         637|   -6.031799|   -5.485504|   -7.200512|   -5.570038|
|         638|   -6.044335|   -5.490735|   -7.196872|   -5.576739|
|         639|   -6.054089|   -5.497009|   -7.194597|   -5.583377|
|         640|   -6.060617|   -5.504360|   -7.193697|   -5.589914|
|         641|   -6.063635|   -5.512818|   -7.194185|   -5.596314|
|         642|   -6.063071|   -5.522424|   -7.196081|   -5.602541|
|         643|   -6.059076|   -5.533225|   -7.199416|   -5.608562|
|         644|   -6.051998|   -5.545261|   -7.204207|   -5.614346|
|         645|   -6.042326|   -5.558579|   -7.210488|   -5.619865|
|         646|   -6.030620|   -5.573242|   -7.218307|   -5.625097|
|         647|   -6.017450|   -5.589319|   -7.227701|   -5.630023|
|         648|   -6.003346|   -5.606869|   -7.238684|   -5.634629|
|         649|   -5.988772|   -5.625971|   -7.251278|   -5.638910|
|         650|   -5.974111|   -5.646707|   -7.265505|   -5.642863|
|         651|   -5.959672|   -5.669165|   -7.281385|   -5.646494|
|         652|   -5.945693|   -5.693429|   -7.298934|   -5.649814|
|         653|   -5.932352|   -5.719581|   -7.318170|   -5.652839|
|         654|   -5.919777|   -5.747699|   -7.339104|   -5.655590|
|         655|   -5.908059|   -5.777840|   -7.361716|   -5.658094|
|         656|   -5.897257|   -5.810013|   -7.385949|   -5.660378|
|         657|   -5.887408|   -5.844145|   -7.411691|   -5.662474|
|         658|   -5.878530|   -5.880022|   -7.438743|   -5.664417|
|         659|   -5.870629|   -5.917192|   -7.466777|   -5.666240|
|         660|   -5.863699|   -5.954833|   -7.495285|   -5.667977|
|         661|   -5.857728|   -5.991579|   -7.523528|   -5.669663|
|         662|   -5.852699|   -6.025360|   -7.550492|   -5.671331|
|         663|   -5.848591|   -6.053393|   -7.574896|   -5.673011|
|         664|   -5.845378|   -6.072602|   -7.595294|   -5.674731|
|         665|   -5.843033|   -6.080472|   -7.610266|   -5.676520|
|         666|   -5.841529|   -6.076100|   -7.618718|   -5.678398|
|         667|   -5.840834|   -6.060628|   -7.620185|   -5.680388|
|         668|   -5.840918|   -6.036687|   -7.614976|   -5.682505|
|         669|   -5.841750|   -6.007333|   -7.604076|   -5.684765|
|         670|   -5.843297|   -5.975223|   -7.588862|   -5.687177|
|         671|   -5.845527|   -5.942299|   -7.570784|   -5.689749|
|         672|   -5.848408|   -5.909816|   -7.551139|   -5.692485|
|         673|   -5.851907|   -5.878510|   -7.530967|   -5.695384|
|         674|   -5.855993|   -5.848763|   -7.511034|   -5.698446|
|         675|   -5.860633|   -5.820743|   -7.491873|   -5.701663|
|         676|   -5.865797|   -5.794485|   -7.473821|   -5.705028|
|         677|   -5.871455|   -5.769946|   -7.457074|   -5.708529|
|         678|   -5.877577|   -5.747044|   -7.441730|   -5.712151|
|         679|   -5.884138|   -5.725680|   -7.427823|   -5.715879|
|         680|   -5.891110|   -5.705739|   -7.415331|   -5.719691|
|         681|   -5.898472|   -5.687114|   -7.404209|   -5.723568|
|         682|   -5.906202|   -5.669703|   -7.394403|   -5.727484|
|         683|   -5.914282|   -5.653407|   -7.385849|   -5.731414|
|         684|   -5.922697|   -5.638136|   -7.378458|   -5.735331|
|         685|   -5.931436|   -5.623805|   -7.372144|   -5.739208|
|         686|   -5.940490|   -5.610337|   -7.366829|   -5.743016|
|         687|   -5.949855|   -5.597667|   -7.362426|   -5.746726|
|         688|   -5.959527|   -5.585733|   -7.358838|   -5.750310|
|         689|   -5.969511|   -5.574482|   -7.355972|   -5.753739|
|         690|   -5.979808|   -5.563867|   -7.353742|   -5.756987|
|         691|   -5.990428|   -5.553846|   -7.352062|   -5.760029|
|         692|   -6.001379|   -5.544387|   -7.350853|   -5.762842|
|         693|   -6.012670|   -5.535459|   -7.350029|   -5.765405|
|         694|   -6.024312|   -5.527036|   -7.349512|   -5.767701|
|         695|   -6.036313|   -5.519098|   -7.349227|   -5.769716|
|         696|   -6.048680|   -5.511628|   -7.349110|   -5.771439|
|         697|   -6.061414|   -5.504612|   -7.349105|   -5.772865|
|         698|   -6.074512|   -5.498038|   -7.349168|   -5.773990|
|         699|   -6.087958|   -5.491901|   -7.349263|   -5.774816|
|         700|   -6.101728|   -5.486193|   -7.349367|   -5.775348|
|         701|   -6.115781|   -5.480913|   -7.349470|   -5.775596|
|         702|   -6.130057|   -5.476058|   -7.349570|   -5.775570|
|         703|   -6.144475|   -5.471628|   -7.349679|   -5.775285|
|         704|   -6.158922|   -5.467624|   -7.349818|   -5.774761|
|         705|   -6.173259|   -5.464049|   -7.350016|   -5.774015|
|         706|   -6.187307|   -5.460905|   -7.350309|   -5.773069|
|         707|   -6.200852|   -5.458194|   -7.350741|   -5.771947|
|         708|   -6.213645|   -5.455920|   -7.351358|   -5.770670|
|         709|   -6.225403|   -5.454085|   -7.352211|   -5.769265|
|         710|   -6.235827|   -5.452694|   -7.353354|   -5.767753|
|         711|   -6.244611|   -5.451747|   -7.354839|   -5.766160|
|         712|   -6.251471|   -5.451248|   -7.356722|   -5.764508|
|         713|   -6.256168|   -5.451197|   -7.359057|   -5.762820|
|         714|   -6.258534|   -5.451593|   -7.361897|   -5.761117|
|         715|   -6.258497|   -5.452437|   -7.365294|   -5.759420|
|         716|   -6.256084|   -5.453725|   -7.369297|   -5.757748|
|         717|   -6.251427|   -5.455454|   -7.373953|   -5.756119|
|         718|   -6.244744|   -5.457617|   -7.379308|   -5.754549|
|         719|   -6.236317|   -5.460207|   -7.385401|   -5.753055|
|         720|   -6.226467|   -5.463213|   -7.392270|   -5.751648|
|         721|   -6.215528|   -5.466622|   -7.399947|   -5.750342|
|         722|   -6.203824|   -5.470419|   -7.408458|   -5.749148|
|         723|   -6.191657|   -5.474584|   -7.417820|   -5.748075|
|         724|   -6.179297|   -5.479094|   -7.428042|   -5.747131|
|         725|   -6.166977|   -5.483924|   -7.439118|   -5.746323|
|         726|   -6.154894|   -5.489044|   -7.451026|   -5.745656|
|         727|   -6.143212|   -5.494417|   -7.463723|   -5.745134|
|         728|   -6.132065|   -5.500005|   -7.477137|   -5.744760|
|         729|   -6.121560|   -5.505764|   -7.491160|   -5.744534|
|         730|   -6.111785|   -5.511645|   -7.505638|   -5.744457|
|         731|   -6.102808|   -5.517597|   -7.520363|   -5.744527|
|         732|   -6.094683|   -5.523561|   -7.535061|   -5.744740|
|         733|   -6.087454|   -5.529479|   -7.549383|   -5.745092|
|         734|   -6.081155|   -5.535289|   -7.562907|   -5.745578|
|         735|   -6.075813|   -5.540926|   -7.575138|   -5.746190|
|         736|   -6.071450|   -5.546329|   -7.585539|   -5.746920|
|         737|   -6.068085|   -5.551436|   -7.593560|   -5.747757|
|         738|   -6.065731|   -5.556190|   -7.598707|   -5.748690|
|         739|   -6.064403|   -5.560541|   -7.600597|   -5.749706|
|         740|   -6.064110|   -5.564446|   -7.599028|   -5.750792|
|         741|   -6.064863|   -5.567872|   -7.594004|   -5.751932|
|         742|   -6.066669|   -5.570797|   -7.585745|   -5.753112|
|         743|   -6.069536|   -5.573213|   -7.574644|   -5.754313|
|         744|   -6.073468|   -5.575123|   -7.561212|   -5.755519|
|         745|   -6.078470|   -5.576545|   -7.546008|   -5.756712|
|         746|   -6.084542|   -5.577509|   -7.529584|   -5.757874|
|         747|   -6.091682|   -5.578056|   -7.512446|   -5.758986|
|         748|   -6.099880|   -5.578238|   -7.495030|   -5.760031|
|         749|   -6.109122|   -5.578116|   -7.477698|   -5.760992|
|         750|   -6.119383|   -5.577754|   -7.460737|   -5.761852|
|         751|   -6.130625|   -5.577224|   -7.444372|   -5.762597|
|         752|   -6.142795|   -5.576598|   -7.428771|   -5.763212|
|         753|   -6.155815|   -5.575949|   -7.414058|   -5.763686|
|         754|   -6.169580|   -5.575351|   -7.400324|   -5.764009|
|         755|   -6.183949|   -5.574872|   -7.387631|   -5.764172|
|         756|   -6.198736|   -5.574582|   -7.376022|   -5.764170|
|         757|   -6.213702|   -5.574542|   -7.365523|   -5.764000|
|         758|   -6.228546|   -5.574813|   -7.356152|   -5.763662|
|         759|   -6.242904|   -5.575448|   -7.347916|   -5.763156|
|         760|   -6.256346|   -5.576499|   -7.340816|   -5.762486|
|         761|   -6.268393|   -5.578010|   -7.334853|   -5.761660|
|         762|   -6.278540|   -5.580024|   -7.330023|   -5.760686|
|         763|   -6.286296|   -5.582576|   -7.326319|   -5.759573|
|         764|   -6.291240|   -5.585701|   -7.323738|   -5.758334|
|         765|   -6.293073|   -5.589426|   -7.322275|   -5.756981|
|         766|   -6.291664|   -5.593779|   -7.321926|   -5.755530|
|         767|   -6.287069|   -5.598778|   -7.322689|   -5.753995|
|         768|   -6.279522|   -5.604446|   -7.324563|   -5.752392|
|         769|   -6.269397|   -5.610796|   -7.327548|   -5.750737|
|         770|   -6.257158|   -5.617839|   -7.331643|   -5.749045|
|         771|   -6.243301|   -5.625585|   -7.336850|   -5.747334|
|         772|   -6.228311|   -5.634035|   -7.343173|   -5.745618|
|         773|   -6.212627|   -5.643190|   -7.350619|   -5.743913|
|         774|   -6.196632|   -5.653042|   -7.359200|   -5.742233|
|         775|   -6.180639|   -5.663580|   -7.368934|   -5.740591|
|         776|   -6.164901|   -5.674786|   -7.379837|   -5.739001|
|         777|   -6.149614|   -5.686629|   -7.391925|   -5.737475|
|         778|   -6.134927|   -5.699076|   -7.405223|   -5.736024|
|         779|   -6.120949|   -5.712076|   -7.419762|   -5.734658|
|         780|   -6.107758|   -5.725566|   -7.435566|   -5.733387|
|         781|   -6.095410|   -5.739465|   -7.452665|   -5.732220|
|         782|   -6.083940|   -5.753676|   -7.471084|   -5.731165|
|         783|   -6.073371|   -5.768079|   -7.490852|   -5.730228|
|         784|   -6.063716|   -5.782528|   -7.511994|   -5.729417|
|         785|   -6.054978|   -5.796856|   -7.534537|   -5.728739|
|         786|   -6.047158|   -5.810870|   -7.558492|   -5.728197|
|         787|   -6.040251|   -5.824352|   -7.583853|   -5.727798|
|         788|   -6.034251|   -5.837071|   -7.610580|   -5.727545|
|         789|   -6.029151|   -5.848783|   -7.638583|   -5.727443|
|         790|   -6.024942|   -5.859247|   -7.667692|   -5.727496|
|         791|   -6.021615|   -5.868240|   -7.697623|   -5.727705|
|         792|   -6.019164|   -5.875572|   -7.727925|   -5.728075|
|         793|   -6.017580|   -5.881103|   -7.757930|   -5.728608|
|         794|   -6.016858|   -5.884757|   -7.786707|   -5.729305|
|         795|   -6.016991|   -5.886528|   -7.813030|   -5.730168|
|         796|   -6.017976|   -5.886481|   -7.835426|   -5.731198|
|         797|   -6.019809|   -5.884747|   -7.852342|   -5.732395|
|         798|   -6.022488|   -5.881510|   -7.862444|   -5.733760|
|         799|   -6.026010|   -5.876988|   -7.864978|   -5.735291|
|         800|   -6.030376|   -5.871421|   -7.860002|   -5.736988|
|         801|   -6.035585|   -5.865052|   -7.848378|   -5.738847|
|         802|   -6.041638|   -5.858119|   -7.831499|   -5.740867|
|         803|   -6.048534|   -5.850843|   -7.810932|   -5.743042|
|         804|   -6.056272|   -5.843422|   -7.788132|   -5.745370|
|         805|   -6.064851|   -5.836032|   -7.764289|   -5.747842|
|         806|   -6.074266|   -5.828821|   -7.740297|   -5.750454|
|         807|   -6.084511|   -5.821919|   -7.716783|   -5.753196|
|         808|   -6.095575|   -5.815436|   -7.694167|   -5.756059|
|         809|   -6.107439|   -5.809460|   -7.672712|   -5.759034|
|         810|   -6.120079|   -5.804062|   -7.652573|   -5.762107|
|         811|   -6.133458|   -5.799302|   -7.633838|   -5.765267|
|         812|   -6.147527|   -5.795231|   -7.616548|   -5.768499|
|         813|   -6.162219|   -5.791889|   -7.600717|   -5.771789|
|         814|   -6.177447|   -5.789312|   -7.586337|   -5.775118|
|         815|   -6.193093|   -5.787530|   -7.573390|   -5.778472|
|         816|   -6.209012|   -5.786580|   -7.561848|   -5.781830|
|         817|   -6.225019|   -5.786473|   -7.551661|   -5.785174|
|         818|   -6.240888|   -5.787241|   -7.542806|   -5.788486|
|         819|   -6.256349|   -5.788892|   -7.535269|   -5.791745|
|         820|   -6.271090|   -5.791452|   -7.529040|   -5.794932|
|         821|   -6.284763|   -5.794938|   -7.524100|   -5.798029|
|         822|   -6.297001|   -5.799373|   -7.520446|   -5.801016|
|         823|   -6.307438|   -5.804777|   -7.518067|   -5.803877|
|         824|   -6.315740|   -5.811174|   -7.516948|   -5.806597|
|         825|   -6.321639|   -5.818584|   -7.517075|   -5.809159|
|         826|   -6.324965|   -5.827033|   -7.518447|   -5.811553|
|         827|   -6.325666|   -5.836553|   -7.521077|   -5.813768|
|         828|   -6.323818|   -5.847177|   -7.524980|   -5.815796|
|         829|   -6.319611|   -5.858939|   -7.530174|   -5.817633|
|         830|   -6.313329|   -5.871879|   -7.536678|   -5.819277|
|         831|   -6.305314|   -5.886039|   -7.544511|   -5.820727|
|         832|   -6.295935|   -5.901464|   -7.553695|   -5.821988|
|         833|   -6.285559|   -5.918198|   -7.564254|   -5.823064|
|         834|   -6.274528|   -5.936291|   -7.576211|   -5.823966|
|         835|   -6.263148|   -5.955787|   -7.589593|   -5.824703|
|         836|   -6.251680|   -5.976729|   -7.604426|   -5.825288|
|         837|   -6.240343|   -5.999149|   -7.620733|   -5.825735|
|         838|   -6.229312|   -6.023061|   -7.638536|   -5.826061|
|         839|   -6.218729|   -6.048452|   -7.657849|   -5.826282|
|         840|   -6.208701|   -6.075260|   -7.678671|   -5.826416|
|         841|   -6.199311|   -6.103348|   -7.700978|   -5.826481|
|         842|   -6.190619|   -6.132466|   -7.724709|   -5.826495|
|         843|   -6.182668|   -6.162199|   -7.749748|   -5.826475|
|         844|   -6.175488|   -6.191899|   -7.775903|   -5.826440|
|         845|   -6.169097|   -6.220611|   -7.802868|   -5.826406|
|         846|   -6.163506|   -6.247030|   -7.830186|   -5.826387|
|         847|   -6.158716|   -6.269526|   -7.857209|   -5.826400|
|         848|   -6.154727|   -6.286311|   -7.883061|   -5.826456|
|         849|   -6.151534|   -6.295787|   -7.906635|   -5.826567|
|         850|   -6.149126|   -6.296988|   -7.926657|   -5.826744|
|         851|   -6.147495|   -6.289903|   -7.941836|   -5.826996|
|         852|   -6.146626|   -6.275479|   -7.951110|   -5.827329|
|         853|   -6.146507|   -6.255296|   -7.953902|   -5.827748|
|         854|   -6.147122|   -6.231124|   -7.950285|   -5.828258|
|         855|   -6.148457|   -6.204579|   -7.940959|   -5.828862|
|         856|   -6.150495|   -6.176953|   -7.927049|   -5.829558|
|         857|   -6.153221|   -6.149182|   -7.909847|   -5.830348|
|         858|   -6.156618|   -6.121900|   -7.890580|   -5.831229|
|         859|   -6.160670|   -6.095509|   -7.870286|   -5.832197|
|         860|   -6.165362|   -6.070242|   -7.849766|   -5.833248|
|         861|   -6.170676|   -6.046220|   -7.829599|   -5.834376|
|         862|   -6.176599|   -6.023490|   -7.810183|   -5.835573|
|         863|   -6.183113|   -6.002050|   -7.791771|   -5.836834|
|         864|   -6.190204|   -5.981871|   -7.774513|   -5.838148|
|         865|   -6.197858|   -5.962905|   -7.758487|   -5.839507|
|         866|   -6.206059|   -5.945097|   -7.743719|   -5.840902|
|         867|   -6.214795|   -5.928386|   -7.730202|   -5.842321|
|         868|   -6.224051|   -5.912712|   -7.717905|   -5.843755|
|         869|   -6.233815|   -5.898015|   -7.706783|   -5.845194|
|         870|   -6.244074|   -5.884238|   -7.696783|   -5.846626|
|         871|   -6.254815|   -5.871327|   -7.687844|   -5.848043|
|         872|   -6.266026|   -5.859233|   -7.679905|   -5.849433|
|         873|   -6.277695|   -5.847909|   -7.672902|   -5.850789|
|         874|   -6.289808|   -5.837312|   -7.666772|   -5.852101|
|         875|   -6.302350|   -5.827405|   -7.661454|   -5.853361|
|         876|   -6.315305|   -5.818151|   -7.656886|   -5.854562|
|         877|   -6.328655|   -5.809519|   -7.653012|   -5.855698|
|         878|   -6.342376|   -5.801480|   -7.649775|   -5.856763|
|         879|   -6.356439|   -5.794009|   -7.647124|   -5.857753|
|         880|   -6.370811|   -5.787082|   -7.645012|   -5.858666|
|         881|   -6.385447|   -5.780680|   -7.643395|   -5.859498|
|         882|   -6.400292|   -5.774786|   -7.642236|   -5.860249|
|         883|   -6.415276|   -5.769383|   -7.641497|   -5.860919|
|         884|   -6.430314|   -5.764459|   -7.641145|   -5.861510|
|         885|   -6.445300|   -5.760003|   -7.641153|   -5.862022|
|         886|   -6.460106|   -5.756003|   -7.641501|   -5.862459|
|         887|   -6.474578|   -5.752453|   -7.642176|   -5.862825|
|         888|   -6.488538|   -5.749344|   -7.643172|   -5.863124|
|         889|   -6.501781|   -5.746672|   -7.644482|   -5.863362|
|         890|   -6.514081|   -5.744431|   -7.646109|   -5.863545|
|         891|   -6.525199|   -5.742616|   -7.648058|   -5.863678|
|         892|   -6.534889|   -5.741224|   -7.650340|   -5.863768|
|         893|   -6.542921|   -5.740253|   -7.652969|   -5.863823|
|         894|   -6.549089|   -5.739697|   -7.655966|   -5.863849|
|         895|   -6.553237|   -5.739556|   -7.659351|   -5.863853|
|         896|   -6.555273|   -5.739824|   -7.663148|   -5.863842|
|         897|   -6.555178|   -5.740498|   -7.667382|   -5.863824|
|         898|   -6.553010|   -5.741575|   -7.672080|   -5.863805|
|         899|   -6.548903|   -5.743049|   -7.677268|   -5.863792|
|         900|   -6.543048|   -5.744914|   -7.682971|   -5.863790|
|         901|   -6.535684|   -5.747164|   -7.689213|   -5.863806|
|         902|   -6.527074|   -5.749789|   -7.696015|   -5.863845|
|         903|   -6.517488|   -5.752780|   -7.703395|   -5.863911|
|         904|   -6.507192|   -5.756125|   -7.711367|   -5.864009|
|         905|   -6.496434|   -5.759811|   -7.719935|   -5.864143|
|         906|   -6.485440|   -5.763821|   -7.729097|   -5.864316|
|         907|   -6.474407|   -5.768137|   -7.738842|   -5.864531|
|         908|   -6.463506|   -5.772738|   -7.749143|   -5.864788|
|         909|   -6.452883|   -5.777600|   -7.759956|   -5.865090|
|         910|   -6.442660|   -5.782696|   -7.771220|   -5.865437|
|         911|   -6.432936|   -5.787998|   -7.782848|   -5.865829|
|         912|   -6.423794|   -5.793472|   -7.794721|   -5.866264|
|         913|   -6.415302|   -5.799082|   -7.806692|   -5.866742|
|         914|   -6.407512|   -5.804790|   -7.818574|   -5.867259|
|         915|   -6.400471|   -5.810553|   -7.830143|   -5.867813|
|         916|   -6.394212|   -5.816329|   -7.841133|   -5.868401|
|         917|   -6.388766|   -5.822071|   -7.851248|   -5.869018|
|         918|   -6.384155|   -5.827734|   -7.860162|   -5.869658|
|         919|   -6.380398|   -5.833271|   -7.867544|   -5.870318|
|         920|   -6.377511|   -5.838634|   -7.873079|   -5.870990|
|         921|   -6.375508|   -5.843781|   -7.876498|   -5.871668|
|         922|   -6.374397|   -5.848669|   -7.877603|   -5.872345|
|         923|   -6.374189|   -5.853263|   -7.876296|   -5.873014|
|         924|   -6.374890|   -5.857531|   -7.872588|   -5.873667|
|         925|   -6.376505|   -5.861448|   -7.866599|   -5.874297|
|         926|   -6.379038|   -5.864997|   -7.858546|   -5.874895|
|         927|   -6.382491|   -5.868170|   -7.848715|   -5.875454|
|         928|   -6.386862|   -5.870968|   -7.837436|   -5.875966|
|         929|   -6.392147|   -5.873399|   -7.825052|   -5.876422|
|         930|   -6.398339|   -5.875483|   -7.811900|   -5.876816|
|         931|   -6.405425|   -5.877245|   -7.798288|   -5.877141|
|         932|   -6.413384|   -5.878720|   -7.784493|   -5.877389|
|         933|   -6.422188|   -5.879949|   -7.770753|   -5.877555|
|         934|   -6.431797|   -5.880979|   -7.757265|   -5.877635|
|         935|   -6.442159|   -5.881860|   -7.744193|   -5.877622|
|         936|   -6.453201|   -5.882645|   -7.731668|   -5.877514|
|         937|   -6.464832|   -5.883391|   -7.719796|   -5.877308|
|         938|   -6.476932|   -5.884155|   -7.708656|   -5.877003|
|         939|   -6.489350|   -5.884991|   -7.698314|   -5.876597|
|         940|   -6.501898|   -5.885955|   -7.688816|   -5.876091|
|         941|   -6.514350|   -5.887101|   -7.680200|   -5.875486|
|         942|   -6.526435|   -5.888480|   -7.672494|   -5.874785|
|         943|   -6.537844|   -5.890141|   -7.665718|   -5.873990|
|         944|   -6.548233|   -5.892128|   -7.659889|   -5.873107|
|         945|   -6.557241|   -5.894485|   -7.655018|   -5.872140|
|         946|   -6.564510|   -5.897252|   -7.651114|   -5.871096|
|         947|   -6.569715|   -5.900464|   -7.648185|   -5.869980|
|         948|   -6.572595|   -5.904155|   -7.646239|   -5.868800|
|         949|   -6.572986|   -5.908356|   -7.645282|   -5.867565|
|         950|   -6.570835|   -5.913092|   -7.645320|   -5.866282|
|         951|   -6.566214|   -5.918389|   -7.646362|   -5.864959|
|         952|   -6.559305|   -5.924268|   -7.648414|   -5.863607|
|         953|   -6.550381|   -5.930746|   -7.651489|   -5.862233|
|         954|   -6.539771|   -5.937837|   -7.655596|   -5.860846|
|         955|   -6.527831|   -5.945552|   -7.660750|   -5.859457|
|         956|   -6.514917|   -5.953899|   -7.666967|   -5.858072|
|         957|   -6.501361|   -5.962880|   -7.674263|   -5.856702|
|         958|   -6.487461|   -5.972493|   -7.682661|   -5.855354|
|         959|   -6.473474|   -5.982730|   -7.692184|   -5.854037|
|         960|   -6.459614|   -5.993575|   -7.702859|   -5.852758|
|         961|   -6.446058|   -6.005005|   -7.714716|   -5.851525|
|         962|   -6.432943|   -6.016989|   -7.727790|   -5.850344|
|         963|   -6.420382|   -6.029482|   -7.742118|   -5.849223|
|         964|   -6.408456|   -6.042428|   -7.757741|   -5.848167|
|         965|   -6.397231|   -6.055753|   -7.774704|   -5.847181|
|         966|   -6.386752|   -6.069369|   -7.793054|   -5.846271|
|         967|   -6.377053|   -6.083165|   -7.812840|   -5.845442|
|         968|   -6.368158|   -6.097009|   -7.834111|   -5.844697|
|         969|   -6.360083|   -6.110747|   -7.856910|   -5.844040|
|         970|   -6.352836|   -6.124200|   -7.881275|   -5.843475|
|         971|   -6.346424|   -6.137169|   -7.907222|   -5.843003|
|         972|   -6.340847|   -6.149437|   -7.934742|   -5.842627|
|         973|   -6.336107|   -6.160778|   -7.963771|   -5.842350|
|         974|   -6.332200|   -6.170964|   -7.994168|   -5.842171|
|         975|   -6.329125|   -6.179782|   -8.025667|   -5.842093|
|         976|   -6.326877|   -6.187047|   -8.057821|   -5.842116|
|         977|   -6.325454|   -6.192617|   -8.089921|   -5.842239|
|         978|   -6.324851|   -6.196407|   -8.120923|   -5.842462|
|         979|   -6.325065|   -6.198395|   -8.149392|   -5.842785|
|         980|   -6.326092|   -6.198626|   -8.173543|   -5.843207|
|         981|   -6.327931|   -6.197208|   -8.191461|   -5.843725|
|         982|   -6.330578|   -6.194302|   -8.201513|   -5.844338|
|         983|   -6.334031|   -6.190104|   -8.202840|   -5.845044|
|         984|   -6.338288|   -6.184839|   -8.195675|   -5.845840|
|         985|   -6.343345|   -6.178737|   -8.181246|   -5.846722|
|         986|   -6.349199|   -6.172025|   -8.161365|   -5.847687|
|         987|   -6.355848|   -6.164921|   -8.137932|   -5.848731|
|         988|   -6.363285|   -6.157620|   -8.112603|   -5.849851|
|         989|   -6.371503|   -6.150300|   -8.086650|   -5.851040|
|         990|   -6.380492|   -6.143112|   -8.060971|   -5.852295|
|         991|   -6.390239|   -6.136188|   -8.036158|   -5.853610|
|         992|   -6.400724|   -6.129638|   -8.012578|   -5.854979|
|         993|   -6.411923|   -6.123556|   -7.990439|   -5.856396|
|         994|   -6.423802|   -6.118017|   -7.969848|   -5.857855|
|         995|   -6.436318|   -6.113085|   -7.950845|   -5.859350|
[...]
|        6346|  -15.134651|  -14.191996|  -16.275632|   -5.905342|
|        6347|  -15.148877|  -14.196563|  -16.276865|   -5.905342|
|        6348|  -15.162233|  -14.201222|  -16.279013|   -5.905342|
|        6349|  -15.174548|  -14.205978|  -16.281746|   -5.905342|
|        6350|  -15.185677|  -14.210818|  -16.285044|   -5.905342|
|        6351|  -15.195557|  -14.215750|  -16.284377|   -5.905342|
|        6352|  -15.203969|  -14.220761|  -16.289980|   -5.905342|
|        6353|  -15.210829|  -14.225850|  -16.292013|   -5.905342|
|        6354|  -15.216141|  -14.231013|  -16.294975|   -5.905342|
|        6355|  -15.219850|  -14.236253|  -16.298191|   -5.905342|
|        6356|  -15.221964|  -14.241551|  -16.302256|   -5.905342|
|        6357|  -15.222551|  -14.246924|  -16.306034|   -5.905342|
|        6358|  -15.221625|  -14.252355|  -16.308151|   -5.905342|
|        6359|  -15.219356|  -14.257852|  -16.310775|   -5.905342|
|        6360|  -15.215879|  -14.263396|  -16.315451|   -5.905342|
|        6361|  -15.211278|  -14.269005|  -16.319678|   -5.905342|
|        6362|  -15.205737|  -14.274656|  -16.322112|   -5.905342|
|        6363|  -15.199373|  -14.280357|  -16.327748|   -5.905342|
|        6364|  -15.192325|  -14.286109|  -16.331213|   -5.905342|
|        6365|  -15.184681|  -14.291914|  -16.335887|   -5.905342|
|        6366|  -15.176615|  -14.297766|  -16.339990|   -5.905342|
|        6367|  -15.168170|  -14.303659|  -16.344656|   -5.905342|
|        6368|  -15.159463|  -14.309604|  -16.346399|   -5.905342|
|        6369|  -15.150550|  -14.315592|  -16.350671|   -5.905342|
|        6370|  -15.141468|  -14.321626|  -16.354193|   -5.905342|
|        6371|  -15.132306|  -14.327701|  -16.359283|   -5.905342|
|        6372|  -15.123090|  -14.333828|  -16.363490|   -5.905342|
|        6373|  -15.113851|  -14.340003|  -16.367509|   -5.905342|
|        6374|  -15.104593|  -14.346230|  -16.372795|   -5.905342|
|        6375|  -15.095369|  -14.352529|  -16.374167|   -5.905342|
|        6376|  -15.086171|  -14.358881|  -16.375273|   -5.905342|
|        6377|  -15.077036|  -14.365310|  -16.380641|   -5.905342|
|        6378|  -15.067916|  -14.371804|  -16.384219|   -5.905342|
|        6379|  -15.058869|  -14.378375|  -16.391468|   -5.905342|
|        6380|  -15.049908|  -14.385031|  -16.392409|   -5.905342|
|        6381|  -15.040977|  -14.391772|  -16.397136|   -5.905342|
|        6382|  -15.032141|  -14.398623|  -16.397848|   -5.905342|
|        6383|  -15.023374|  -14.405574|  -16.401308|   -5.905342|
|        6384|  -15.014670|  -14.412654|  -16.407245|   -5.905342|
|        6385|  -15.006026|  -14.419841|  -16.409374|   -5.905342|
|        6386|  -14.997491|  -14.427170|  -16.413673|   -5.905342|
|        6387|  -14.989016|  -14.434631|  -16.417063|   -5.905342|
|        6388|  -14.980624|  -14.442257|  -16.423478|   -5.905342|
|        6389|  -14.972306|  -14.450040|  -16.423205|   -5.905342|
|        6390|  -14.964074|  -14.457996|  -16.422881|   -5.905342|
|        6391|  -14.955932|  -14.466137|  -16.429057|   -5.905342|
|        6392|  -14.947879|  -14.474474|  -16.436548|   -5.905342|
|        6393|  -14.939918|  -14.483011|  -16.438279|   -5.905342|
|        6394|  -14.932062|  -14.491764|  -16.441952|   -5.905342|
|        6395|  -14.924307|  -14.500748|  -16.445505|   -5.905342|
|        6396|  -14.916654|  -14.509971|  -16.449002|   -5.905342|
|        6397|  -14.909119|  -14.519459|  -16.454491|   -5.905342|
|        6398|  -14.901708|  -14.529191|  -16.457409|   -5.905342|
|        6399|  -14.894425|  -14.539192|  -16.461550|   -5.905342|
|        6400|  -14.887256|  -14.549478|  -16.466544|   -5.905342|
|        6401|  -14.880232|  -14.560029|  -16.473811|   -5.905342|
|        6402|  -14.873353|  -14.570880|  -16.476538|   -5.905342|
|        6403|  -14.866609|  -14.582017|  -16.480449|   -5.905342|
|        6404|  -14.860017|  -14.593467|  -16.485350|   -5.905342|
|        6405|  -14.853569|  -14.605197|  -16.490133|   -5.905342|
|        6406|  -14.847289|  -14.617204|  -16.496525|   -5.905342|
|        6407|  -14.841163|  -14.629495|  -16.502476|   -5.905342|
|        6408|  -14.835205|  -14.642050|  -16.503691|   -5.905342|
|        6409|  -14.829417|  -14.654870|  -16.510498|   -5.905342|
|        6410|  -14.823795|  -14.667874|  -16.515845|   -5.905342|
|        6411|  -14.818354|  -14.681071|  -16.519196|   -5.905342|
|        6412|  -14.813082|  -14.694420|  -16.523087|   -5.905342|
|        6413|  -14.807988|  -14.707827|  -16.528314|   -5.905342|
|        6414|  -14.803090|  -14.721224|  -16.537628|   -5.905342|
|        6415|  -14.798368|  -14.734536|  -16.538451|   -5.905342|
|        6416|  -14.793835|  -14.747620|  -16.541402|   -5.905342|
|        6417|  -14.789480|  -14.760385|  -16.543477|   -5.905342|
|        6418|  -14.785325|  -14.772717|  -16.553004|   -5.905342|
|        6419|  -14.781344|  -14.784400|  -16.553645|   -5.905342|
|        6420|  -14.777559|  -14.795253|  -16.560012|   -5.905342|
|        6421|  -14.773963|  -14.805108|  -16.565603|   -5.905342|
|        6422|  -14.770559|  -14.813708|  -16.565674|   -5.905342|
|        6423|  -14.767330|  -14.820938|  -16.569533|   -5.905342|
|        6424|  -14.764303|  -14.826616|  -16.572977|   -5.905342|
|        6425|  -14.761456|  -14.830562|  -16.570240|   -5.905342|
|        6426|  -14.758804|  -14.832656|  -16.575278|   -5.905342|
|        6427|  -14.756327|  -14.832865|  -16.574391|   -5.905342|
|        6428|  -14.754039|  -14.831147|  -16.577957|   -5.905342|
|        6429|  -14.751930|  -14.827626|  -16.578366|   -5.905342|
|        6430|  -14.750003|  -14.822376|  -16.576610|   -5.905342|
|        6431|  -14.748260|  -14.815524|  -16.576433|   -5.905342|
|        6432|  -14.746694|  -14.807220|  -16.576969|   -5.905342|
|        6433|  -14.745310|  -14.797684|  -16.579547|   -5.905342|
|        6434|  -14.744098|  -14.787103|  -16.576362|   -5.905342|
|        6435|  -14.743054|  -14.775655|  -16.575634|   -5.905342|
|        6436|  -14.742176|  -14.763558|  -16.574457|   -5.905342|
|        6437|  -14.741474|  -14.750967|  -16.571431|   -5.905342|
|        6438|  -14.740942|  -14.738041|  -16.574909|   -5.905342|
|        6439|  -14.740568|  -14.724903|  -16.573449|   -5.905342|
|        6440|  -14.740352|  -14.711639|  -16.567365|   -5.905342|
|        6441|  -14.740313|  -14.698425|  -16.566048|   -5.905342|
|        6442|  -14.740408|  -14.685271|  -16.567676|   -5.905342|
|        6443|  -14.740673|  -14.672269|  -16.565841|   -5.905342|
|        6444|  -14.741088|  -14.659450|  -16.564469|   -5.905342|
|        6445|  -14.741661|  -14.646866|  -16.561699|   -5.905342|
|        6446|  -14.742369|  -14.634586|  -16.559202|   -5.905342|
|        6447|  -14.743242|  -14.622578|  -16.559289|   -5.905342|
|        6448|  -14.744243|  -14.610923|  -16.557483|   -5.905342|
|        6449|  -14.745394|  -14.599567|  -16.557329|   -5.905342|
|        6450|  -14.746680|  -14.588557|  -16.556172|   -5.905342|
|        6451|  -14.748122|  -14.577901|  -16.557171|   -5.905342|
|        6452|  -14.749684|  -14.567582|  -16.555005|   -5.905342|
|        6453|  -14.751387|  -14.557615|  -16.555151|   -5.905342|
|        6454|  -14.753240|  -14.547998|  -16.554533|   -5.905342|
|        6455|  -14.755223|  -14.538729|  -16.555267|   -5.905342|
|        6456|  -14.757316|  -14.529782|  -16.559664|   -5.905342|
|        6457|  -14.759564|  -14.521190|  -16.558790|   -5.905342|
|        6458|  -14.761941|  -14.512912|  -16.560446|   -5.905342|
|        6459|  -14.764456|  -14.504964|  -16.561657|   -5.905342|
|        6460|  -14.767085|  -14.497319|  -16.563284|   -5.905342|
|        6461|  -14.769855|  -14.490002|  -16.565311|   -5.905342|
|        6462|  -14.772757|  -14.482975|  -16.568419|   -5.905342|
|        6463|  -14.775805|  -14.476248|  -16.570123|   -5.905342|
|        6464|  -14.778969|  -14.469803|  -16.569601|   -5.905342|
|        6465|  -14.782271|  -14.463644|  -16.569658|   -5.905342|
|        6466|  -14.785725|  -14.457759|  -16.574914|   -5.905342|
|        6467|  -14.789289|  -14.452153|  -16.578727|   -5.905342|
|        6468|  -14.792994|  -14.446794|  -16.583234|   -5.905342|
|        6469|  -14.796856|  -14.441697|  -16.587516|   -5.905342|
|        6470|  -14.800855|  -14.436849|  -16.586598|   -5.905342|
|        6471|  -14.804994|  -14.432242|  -16.589817|   -5.905342|
|        6472|  -14.809287|  -14.427876|  -16.595178|   -5.905342|
|        6473|  -14.813734|  -14.423737|  -16.600341|   -5.905342|
|        6474|  -14.818329|  -14.419839|  -16.602311|   -5.905342|
|        6475|  -14.823084|  -14.416149|  -16.604644|   -5.905342|
|        6476|  -14.828007|  -14.412688|  -16.611161|   -5.905342|
|        6477|  -14.833087|  -14.409433|  -16.612071|   -5.905342|
|        6478|  -14.838328|  -14.406388|  -16.613838|   -5.905342|
|        6479|  -14.843753|  -14.403545|  -16.618850|   -5.905342|
|        6480|  -14.849357|  -14.400910|  -16.620997|   -5.905342|
|        6481|  -14.855132|  -14.398469|  -16.621033|   -5.905342|
|        6482|  -14.861118|  -14.396214|  -16.622631|   -5.905342|
|        6483|  -14.867277|  -14.394155|  -16.625213|   -5.905342|
|        6484|  -14.873642|  -14.392272|  -16.625750|   -5.905342|
|        6485|  -14.880212|  -14.390581|  -16.625575|   -5.905342|
|        6486|  -14.886988|  -14.389061|  -16.628126|   -5.905342|
|        6487|  -14.893968|  -14.387726|  -16.625983|   -5.905342|
|        6488|  -14.901182|  -14.386554|  -16.627234|   -5.905342|
|        6489|  -14.908631|  -14.385562|  -16.627376|   -5.905342|
|        6490|  -14.916292|  -14.384735|  -16.624108|   -5.905342|
|        6491|  -14.924214|  -14.384075|  -16.621693|   -5.905342|
|        6492|  -14.932380|  -14.383583|  -16.624974|   -5.905342|
|        6493|  -14.940801|  -14.383253|  -16.620307|   -5.905342|
|        6494|  -14.949483|  -14.383083|  -16.620431|   -5.905342|
|        6495|  -14.958430|  -14.383069|  -16.616675|   -5.905342|
|        6496|  -14.967657|  -14.383214|  -16.613357|   -5.905342|
|        6497|  -14.977156|  -14.383506|  -16.607482|   -5.905342|
|        6498|  -14.986943|  -14.383965|  -16.604221|   -5.905342|
|        6499|  -14.997053|  -14.384569|  -16.602504|   -5.905342|
|        6500|  -15.007445|  -14.385319|  -16.601288|   -5.905342|
|        6501|  -15.018194|  -14.386230|  -16.597432|   -5.905342|
|        6502|  -15.029222|  -14.387288|  -16.590588|   -5.905342|
|        6503|  -15.040590|  -14.388487|  -16.587947|   -5.905342|
|        6504|  -15.052298|  -14.389836|  -16.583055|   -5.905342|
|        6505|  -15.064351|  -14.391329|  -16.578942|   -5.905342|
|        6506|  -15.076747|  -14.392963|  -16.579556|   -5.905342|
|        6507|  -15.089507|  -14.394743|  -16.575354|   -5.905342|
|        6508|  -15.102628|  -14.396663|  -16.569460|   -5.905342|
|        6509|  -15.116138|  -14.398727|  -16.569613|   -5.905342|
|        6510|  -15.129998|  -14.400919|  -16.566282|   -5.905342|
|        6511|  -15.144249|  -14.403258|  -16.561309|   -5.905342|
|        6512|  -15.158862|  -14.405727|  -16.560031|   -5.905342|
|        6513|  -15.173838|  -14.408331|  -16.559573|   -5.905342|
|        6514|  -15.189239|  -14.411066|  -16.553654|   -5.905342|
|        6515|  -15.204974|  -14.413945|  -16.553346|   -5.905342|
|        6516|  -15.221091|  -14.416957|  -16.551306|   -5.905342|
|        6517|  -15.237556|  -14.420095|  -16.549926|   -5.905342|
|        6518|  -15.254316|  -14.423361|  -16.548681|   -5.905342|
|        6519|  -15.271404|  -14.426750|  -16.545012|   -5.905342|
|        6520|  -15.288764|  -14.430283|  -16.547375|   -5.905342|
|        6521|  -15.306329|  -14.433924|  -16.544926|   -5.905342|
|        6522|  -15.324074|  -14.437688|  -16.546355|   -5.905342|
|        6523|  -15.341892|  -14.441581|  -16.546593|   -5.905342|
|        6524|  -15.359801|  -14.445573|  -16.546732|   -5.905342|
|        6525|  -15.377556|  -14.449702|  -16.547785|   -5.905342|
|        6526|  -15.395160|  -14.453934|  -16.545365|   -5.905342|
|        6527|  -15.412342|  -14.458275|  -16.546627|   -5.905342|
|        6528|  -15.429140|  -14.462732|  -16.548824|   -5.905342|
|        6529|  -15.445237|  -14.467298|  -16.549066|   -5.905342|
|        6530|  -15.460377|  -14.471970|  -16.551259|   -5.905342|
|        6531|  -15.474527|  -14.476743|  -16.553108|   -5.905342|
|        6532|  -15.487326|  -14.481607|  -16.554592|   -5.905342|
|        6533|  -15.498627|  -14.486571|  -16.557576|   -5.905342|
|        6534|  -15.508271|  -14.491639|  -16.560914|   -5.905342|
|        6535|  -15.516025|  -14.496783|  -16.565113|   -5.905342|
|        6536|  -15.521845|  -14.502027|  -16.568284|   -5.905342|
|        6537|  -15.525654|  -14.507348|  -16.567556|   -5.905342|
|        6538|  -15.527518|  -14.512770|  -16.572109|   -5.905342|
|        6539|  -15.527375|  -14.518254|  -16.572555|   -5.905342|
|        6540|  -15.525372|  -14.523808|  -16.576199|   -5.905342|
|        6541|  -15.521715|  -14.529459|  -16.582040|   -5.905342|
|        6542|  -15.516546|  -14.535170|  -16.584501|   -5.905342|
|        6543|  -15.510086|  -14.540968|  -16.588512|   -5.905342|
|        6544|  -15.502537|  -14.546821|  -16.593574|   -5.905342|
|        6545|  -15.494031|  -14.552744|  -16.595090|   -5.905342|
|        6546|  -15.484846|  -14.558736|  -16.599936|   -5.905342|
|        6547|  -15.474982|  -14.564793|  -16.608902|   -5.905342|
|        6548|  -15.464822|  -14.570910|  -16.605318|   -5.905342|
|        6549|  -15.454282|  -14.577093|  -16.609505|   -5.905342|
|        6550|  -15.443572|  -14.583316|  -16.614546|   -5.905342|
|        6551|  -15.432786|  -14.589612|  -16.621119|   -5.905342|
|        6552|  -15.421934|  -14.595964|  -16.622672|   -5.905342|
|        6553|  -15.411131|  -14.602379|  -16.632682|   -5.905342|
|        6554|  -15.400348|  -14.608847|  -16.631459|   -5.905342|
|        6555|  -15.389687|  -14.615397|  -16.638374|   -5.905342|
|        6556|  -15.379135|  -14.622021|  -16.634937|   -5.905342|
|        6557|  -15.368703|  -14.628689|  -16.642540|   -5.905342|
|        6558|  -15.358462|  -14.635446|  -16.646232|   -5.905342|
|        6559|  -15.348383|  -14.642281|  -16.651965|   -5.905342|
|        6560|  -15.338400|  -14.649196|  -16.660308|   -5.905342|
|        6561|  -15.328643|  -14.656174|  -16.659654|   -5.905342|
|        6562|  -15.319036|  -14.663254|  -16.659946|   -5.905342|
|        6563|  -15.309582|  -14.670449|  -16.666195|   -5.905342|
|        6564|  -15.300269|  -14.677712|  -16.672423|   -5.905342|
|        6565|  -15.291098|  -14.685111|  -16.673776|   -5.905342|
|        6566|  -15.282097|  -14.692622|  -16.679622|   -5.905342|
|        6567|  -15.273263|  -14.700238|  -16.680948|   -5.905342|
|        6568|  -15.264552|  -14.707989|  -16.687788|   -5.905342|
|        6569|  -15.255982|  -14.715902|  -16.690401|   -5.905342|
|        6570|  -15.247553|  -14.723963|  -16.692237|   -5.905342|
|        6571|  -15.239255|  -14.732161|  -16.700228|   -5.905342|
|        6572|  -15.231101|  -14.740572|  -16.705407|   -5.905342|
|        6573|  -15.223069|  -14.749103|  -16.700056|   -5.905342|
|        6574|  -15.215120|  -14.757851|  -16.704422|   -5.905342|
|        6575|  -15.207340|  -14.766782|  -16.713833|   -5.905342|
|        6576|  -15.199698|  -14.775932|  -16.710020|   -5.905342|
|        6577|  -15.192172|  -14.785319|  -16.727220|   -5.905342|
|        6578|  -15.184774|  -14.794931|  -16.725937|   -5.905342|
|        6579|  -15.177495|  -14.804777|  -16.727525|   -5.905342|
|        6580|  -15.170368|  -14.814872|  -16.735726|   -5.905342|
|        6581|  -15.163338|  -14.825273|  -16.741047|   -5.905342|
|        6582|  -15.156465|  -14.835901|  -16.740507|   -5.905342|
|        6583|  -15.149747|  -14.846844|  -16.744559|   -5.905342|
|        6584|  -15.143132|  -14.858048|  -16.747347|   -5.905342|
|        6585|  -15.136696|  -14.869561|  -16.754109|   -5.905342|
|        6586|  -15.130384|  -14.881323|  -16.762750|   -5.905342|
|        6587|  -15.124225|  -14.893433|  -16.766159|   -5.905342|
|        6588|  -15.118221|  -14.905821|  -16.767047|   -5.905342|
|        6589|  -15.112360|  -14.918471|  -16.767464|   -5.905342|
|        6590|  -15.106664|  -14.931383|  -16.784048|   -5.905342|
|        6591|  -15.101133|  -14.944572|  -16.785248|   -5.905342|
|        6592|  -15.095751|  -14.957943|  -16.786093|   -5.905342|
|        6593|  -15.090538|  -14.971494|  -16.798958|   -5.905342|
|        6594|  -15.085486|  -14.985212|  -16.806684|   -5.905342|
|        6595|  -15.080614|  -14.999003|  -16.805923|   -5.905342|
|        6596|  -15.075897|  -15.012710|  -16.804497|   -5.905342|

----------------------------- Solver Exit -------------------------------
All convergence criteria satisfied.
+-----------------------------------------------------------------------+
|      Convergence Field     |     Value    |   Criterion  |  Converged |
+-----------------------------------------------------------------------+
|                      rms[P]|      -15.0759|         < -15|         Yes|
|                      rms[U]|      -15.0127|         < -15|         Yes|
|                      rms[V]|      -16.8045|         < -15|         Yes|
|                      rms[k]|       -16.159|         < -15|         Yes|
+-----------------------------------------------------------------------+
-------------------------------------------------------------------------
+-----------------------------------------------------------------------+
|        File Writing Summary       |              Filename             |
+-----------------------------------------------------------------------+
|SU2 restart                        |restart_verification_mixtureviscosity_smallbox_turb.dat|
|                                   |                     (1.44388 MB/s)|
|Paraview                           |flow_verification_mixtureviscosity_smallbox_turb_00006596.vtu|
|                                   |                   (0.0368275 MB/s)|
|Paraview surface                   |surface_verification_mixtureviscosity_smallbox_turb.vtu|
|                                   |                     (1.63475 MB/s)|
+-----------------------------------------------------------------------+

------------------------- Solver Postprocessing -------------------------
Deleted CNumerics container.
Deleted CIntegration container.
Deleted CSolver container.
Deleted CIteration container.
Deleted CInterface container.
Deleted CGeometry container.
Deleted CFreeFormDefBox class.
Deleted CSurfaceMovement class.
Deleted CVolumetricMovement class.
Deleted CConfig container.
Deleted nInst container.
Deleted COutput class.
-------------------------------------------------------------------------


-------------------------- Performance Summary --------------------------
Simulation totals:
   Wall-clock time (hrs):   0.0231223 |            Core-hrs:     1.61856
                   Cores:          70 |          DOFs/point:           7
             Points/core:     5.42857 |   Ghost points/core:        13.3
 Ghost/Owned Point Ratio:        2.45 | 

Preprocessing phase:
       Preproc. Time (s):   0.0744257 |   Preproc. Time (%):   0.0894107

Compute phase:
        Compute Time (s):     75.3339 |    Compute Time (%):     90.5017
         Iteration count:        6597 |         Avg. s/iter:   0.0114194
     Core-s/iter/Mpoints:     609.732 |           Mpoints/s:    0.114804

Output phase:
         Output Time (s):     7.83196 |     Output Time (%):     9.40885
            Output count:           1 |       Avg. s/output:     7.83196
 Restart Aggr. BW (MB/s):     11.1219 |           MB/s/core:    0.158884
-------------------------------------------------------------------------


------------------------- Exit Success (SU2_CFD) ------------------------

