scsub> Executing:  'cd /home/hem1dev/Codes/SU2_Github_Mark_Test/SU2/Venturi'


WARNING: CONV_CRITERIA is deprecated. SU2 will choose the criteria automatically based on the CONV_FIELD.
That is, RESIDUAL for any RMS_* BGS_* value, and CAUCHY for coefficients such as DRAG etc.


-------------------------------------------------------------------------
|    ___ _   _ ___                                                      |
|   / __| | | |_  )   Release 7.1.1 "Blackbird"                         |
|   \__ \ |_| |/ /                                                      |
|   |___/\___//___|   Suite (Computational Fluid Dynamics Code)         |
|                                                                       |
-------------------------------------------------------------------------
| SU2 Project Website: https://su2code.github.io                        |
|                                                                       |
| The SU2 Project is maintained by the SU2 Foundation                   |
| (http://su2foundation.org)                                            |
-------------------------------------------------------------------------
| Copyright 2012-2021, SU2 Contributors                                 |
|                                                                       |
| SU2 is free software; you can redistribute it and/or                  |
| modify it under the terms of the GNU Lesser General Public            |
| License as published by the Free Software Foundation; either          |
| version 2.1 of the License, or (at your option) any later version.    |
|                                                                       |
| SU2 is distributed in the hope that it will be useful,                |
| but WITHOUT ANY WARRANTY; without even the implied warranty of        |
| MERCHANTABILITY or FITNESS FOR A PARTICULAR PURPOSE. See the GNU      |
| Lesser General Public License for more details.                       |
|                                                                       |
| You should have received a copy of the GNU Lesser General Public      |
| License along with SU2. If not, see <http://www.gnu.org/licenses/>.   |
-------------------------------------------------------------------------


WARNING: CONV_CRITERIA is deprecated. SU2 will choose the criteria automatically based on the CONV_FIELD.
That is, RESIDUAL for any RMS_* BGS_* value, and CAUCHY for coefficients such as DRAG etc.


Parsing config file for zone 0


WARNING: CONV_CRITERIA is deprecated. SU2 will choose the criteria automatically based on the CONV_FIELD.
That is, RESIDUAL for any RMS_* BGS_* value, and CAUCHY for coefficients such as DRAG etc.


----------------- Physical Case Definition ( Zone 0 ) -------------------
Incompressible RANS equations.
Turbulence model: Menter's SST
Hybrid RANS/LES: No Hybrid RANS/LES
No restart solution, use the values at infinity (freestream).
Dimensional simulation.
The reference area is 1 m^2.
The semi-span will be computed using the max y(3D) value.
The reference length is 1 m.
Input mesh file name: c6_cms_venturi.cgns

--------------- Space Numerical Integration ( Zone 0 ) ------------------
Flux difference splitting (FDS) upwind scheme for the flow inviscid terms.
Second order integration in space, with slope limiter.
No slope-limiting method. 
Average of gradients with correction (viscous flow terms).
Average of gradients with correction (viscous turbulence terms).
Gradient for upwind reconstruction: inverse-distance weighted Least-Squares.
Gradient for viscous and source terms: inverse-distance weighted Least-Squares.

--------------- Time Numerical Integration  ( Zone 0 ) ------------------
Local time stepping (steady state simulation).
Euler implicit method for the flow equations.
FGMRES is used for solving the linear system.
Using a ILU(0) preconditioning.
Convergence criteria of the linear solver: 1e-08.
Max number of linear iterations: 20.
No CFL adaptation.
Courant-Friedrichs-Lewy number:      100
Euler implicit time integration for the turbulence model.

------------------ Convergence Criteria  ( Zone 0 ) ---------------------
Maximum number of solver subiterations: 10000.
Begin convergence monitoring at iteration 10.
Residual minimum value: 1e-10.
Cauchy series min. value: 1e-06.
Number of Cauchy elements: 100.
Begin windowed time average at iteration 0.

-------------------- Output Information ( Zone 0 ) ----------------------
Writing solution files every 100 iterations.
Writing the convergence history file every 1 inner iterations.
Writing the screen convergence history every 1 inner iterations.
The tabular file format is CSV (.csv).
Convergence history file name: history_test.
Forces breakdown file name: forces_breakdown.dat.
Surface file name: surface_flow_venturi_mixturedensity_30kW_fine_test.
Volume file name: flow_venturi_mixturedensity_30kW_fine_test.
Restart file name: restart_venturi_mixturedensity_30kW_fine_test.dat.

------------- Config File Boundary Information ( Zone 0 ) ---------------
+-----------------------------------------------------------------------+
|                        Marker Type|                        Marker Name|
+-----------------------------------------------------------------------+
|                     Symmetry plane|                               axis|
+-----------------------------------------------------------------------+
|                     Inlet boundary|                          gas_inlet|
|                                   |                          air_inlet|
+-----------------------------------------------------------------------+
|                    Outlet boundary|                             outlet|
+-----------------------------------------------------------------------+
|                     Heat flux wall|            wall-component1-surface|
+-----------------------------------------------------------------------+

-------------------- Output Preprocessing ( Zone 0 ) --------------------
Screen output fields: INNER_ITER, RMS_PRESSURE, RMS_VELOCITY-X, RMS_VELOCITY-Y, RMS_PASSIVE_SCALAR
History output group(s): RMS_RES, AERO_COEFF, FLOW_COEFF
Convergence field(s): RMS_PRESSURE, RMS_VELOCITY-X, RMS_VELOCITY-Y, RMS_TKE
Warning: No (valid) fields chosen for time convergence monitoring. Time convergence monitoring inactive.
  Info: Ignoring the following volume output fields/groups:
  SOURCE, LOOKUP
Volume output fields: DENSITY, SOLUTION, PRIMITIVE, RESIDUAL, COORDINATES

------------------- Geometry Preprocessing ( Zone 0 ) -------------------
Reading the CGNS file: c6_cms_venturi.cgns.
CGNS file contains 1 database(s).
Database 1, Base:  cell dimension of 2, physical dimension of 2.
1 total zone(s).
Zone 1, Zone: 292948 total vertices, 295883 total elements.
Loading CoordinateX values into linear partitions.
Loading CoordinateY values into linear partitions.
Distributing connectivity across all ranks.
Number of connectivity sections is 6.
Section gas_inlet contains 51 elements of type Mixed.
Section air_inlet contains 150 elements of type Mixed.
Section outlet contains 157 elements of type Mixed.
Section axis contains 1721 elements of type Mixed.
Section component1-surface contains 290183 elements of type Mixed.
Section wall-component1-surface contains 3621 elements of type Mixed.
Loading surface section gas_inlet from file.
Loading surface section air_inlet from file.
Loading surface section outlet from file.
Loading surface section axis from file.
Loading volume section component1-surface from file.
Loading surface section wall-component1-surface from file.
Two dimensional problem.
292948 grid points before partitioning.
290183 volume elements before partitioning.
5 surface markers.
51 boundary elements in index 0 (Marker = gas_inlet).
150 boundary elements in index 1 (Marker = air_inlet).
157 boundary elements in index 2 (Marker = outlet).
1721 boundary elements in index 3 (Marker = axis).
3621 boundary elements in index 4 (Marker = wall-component1-surface).
Executing the partitioning functions.
Building the graph adjacency structure.
Calling ParMETIS... graph partitioning complete (8746 edge cuts).
Distributing ParMETIS coloring.
Rebalancing vertices.
Rebalancing volume element connectivity.
Rebalancing markers and surface elements.
310564 vertices including ghost points. 
298925 interior elements including halo cells. 
176 triangles.
298749 quadrilaterals.
Establishing MPI communication patterns.
Setting point connectivity.
Renumbering points (Reverse Cuthill McKee Ordering).
Recomputing point connectivity.
Setting element connectivity.
Checking the numerical grid orientation.
All volume elements are correctly orientend.
All surface elements are correctly orientend.
Identifying edges and vertices.
Setting the control volume structure.
Area of the computational grid: 0.00281152.
Searching for the closest normal neighbors to the surfaces.
Storing a mapping from global to local point index.
Compute the surface curvature.
Max K: 25766.3. Mean K: 66.0693. Standard deviation K: 1007.76.
Checking for periodicity.
Computing mesh quality statistics for the dual control volumes.
+--------------------------------------------------------------+
|           Mesh Quality Metric|        Minimum|        Maximum|
+--------------------------------------------------------------+
|    Orthogonality Angle (deg.)|        45.2115|             90|
|     CV Face Area Aspect Ratio|              1|        10.3208|
|           CV Sub-Volume Ratio|              1|        9.85984|
+--------------------------------------------------------------+
Finding max control volume width.
Communicating number of neighbors.
Wetted area = 0 m.
Area projection in the x-plane = 0 m, y-plane = 0 m.
Max. coordinate in the x-direction = -1e+10 m, y-direction = -1e+10 m.
Min. coordinate in the x-direction = 1e+10 m, y-direction = 1e+10 m.
Checking if Euler & Symmetry markers are straight/plane:
Boundary marker axis is a single straight.
Computing wall distances.

-------------------- Solver Preprocessing ( Zone 0 ) --------------------
Incompressible flow: rho_ref, vel_ref, temp_ref, p_ref
are set to 1.0 in order to perform a dimensional calculation.
Force coefficients computed using initial values.
The reference area for force coeffs. is 1 m^2.
The reference length for force coeffs. is 1 m.
The pressure is decomposed into thermodynamic and dynamic components.
The initial value of the dynamic pressure is 0.
Mach number: 0, computed using fluid speed of sound.
For external flows, the initial state is imposed at the far-field.
Angle of attack (deg): 0, computed using the initial velocity.
Side slip angle (deg): 0, computed using the initial velocity.
Reynolds number per meter: 65290.8, computed using initial values.
Reynolds number is a byproduct of inputs only (not used internally).
SI units only. The grid should be dimensional (meters).
Energy equation is active and coupled for variable density.

-- Models:
+------------------------------------------------------------------------------+
|          Viscosity Model|        Conductivity Model|              Fluid Model|
+------------------------------------------------------------------------------+
|       CONSTANT_VISCOSITY|          CONSTANT_PRANDTL|+------------------------------------------------------------------------------+
-- Fluid properties:
+------------------------------------------------------------------------------+
|                  Name|    Dim. value|    Ref. value|      Unit|Non-dim. value|
+------------------------------------------------------------------------------+
|             Viscosity|     1.118e-05|             1|   N.s/m^2|     1.118e-05|
+------------------------------------------------------------------------------+
|        Prandtl (Lam.)|             -|             -|         -|          0.72|
|       Prandtl (Turb.)|             -|             -|         -|           0.9|
+------------------------------------------------------------------------------+
-- Initial and free-stream conditions:
+------------------------------------------------------------------------------+
|                  Name|    Dim. value|    Ref. value|      Unit|Non-dim. value|
+------------------------------------------------------------------------------+
|      Dynamic Pressure|             0|             1|        Pa|             0|
|        Total Pressure|      0.585985|             1|        Pa|      0.585985|
|               Density|       1.17197|             1|    kg/m^3|       1.17197|
|           Temperature|           300|             1|         K|           300|
|            Velocity-X|             1|             1|       m/s|             1|
|            Velocity-Y|             0|             1|       m/s|             0|
|    Velocity Magnitude|             1|             1|       m/s|             1|
+------------------------------------------------------------------------------+
|             Viscosity|     1.795e-05|             1|   N.s/m^2|     1.795e-05|
|          Conductivity|             -|             1|   W/m^2.K|             -|
|     Turb. Kin. Energy|       0.00375|             1|   m^2/s^2|       0.00375|
|     Spec. Dissipation|       24.4841|             1|       1/s|       24.4841|
+------------------------------------------------------------------------------+
|           Mach Number|             -|             -|         -|             0|
|       Reynolds Number|             -|             -|         -|       65290.8|
+------------------------------------------------------------------------------+
Initialize Jacobian structure (Navier-Stokes). MG level: 0.
Initialize Jacobian structure (passive scalar model).
Initialize Jacobian structure (SST model).

------------------- Numerics Preprocessing ( Zone 0 ) -------------------

----------------- Integration Preprocessing ( Zone 0 ) ------------------

------------------- Iteration Preprocessing ( Zone 0 ) ------------------
Euler/Navier-Stokes/RANS fluid iteration.

------------------------------ Begin Solver -----------------------------

Simulation Run using the Single-zone Driver
Initializing passive scalar (initial condition).
initialization = 1 1
+----------------------------------------------------------------+
|  Inner_Iter|      rms[P]|      rms[U]|      rms[V]|      rms[c]|
+----------------------------------------------------------------+
|           0|   -5.116953|   -4.847332|   -4.364756|   -5.721765|
|           1|   -4.995788|   -4.851316|   -4.078100|   -5.336452|
|           2|   -5.391858|   -4.586732|   -4.045757|   -5.384964|
|           3|   -5.501353|   -4.778211|   -4.089160|   -5.470205|
|           4|   -5.682763|   -4.862988|   -4.150742|   -5.515680|
|           5|   -5.636943|   -4.907777|   -4.336209|   -5.549896|
|           6|   -5.710222|   -4.866090|   -4.534709|   -5.579909|
|           7|   -5.762190|   -4.807616|   -4.664601|   -5.627840|
|           8|   -5.794690|   -4.767071|   -4.668289|   -5.684245|
|           9|   -5.795330|   -4.744686|   -4.565783|   -5.727308|
|          10|   -5.770116|   -4.731359|   -4.409890|   -5.745235|
|          11|   -5.747562|   -4.719759|   -4.314420|   -5.741643|
|          12|   -5.752114|   -4.708096|   -4.284127|   -5.726264|
|          13|   -5.779893|   -4.694836|   -4.291639|   -5.708313|
|          14|   -5.816327|   -4.677694|   -4.319012|   -5.693800|
|          15|   -5.850586|   -4.655271|   -4.352552|   -5.684571|
|          16|   -5.878900|   -4.628804|   -4.379232|   -5.679757|
|          17|   -5.900407|   -4.601036|   -4.389900|   -5.677599|
|          18|   -5.915637|   -4.574419|   -4.384050|   -5.676094|
|          19|   -5.925458|   -4.550192|   -4.367956|   -5.674071|
|          20|   -5.933109|   -4.528253|   -4.349387|   -5.670828|
|          21|   -5.941103|   -4.508294|   -4.333961|   -5.666143|
|          22|   -5.950849|   -4.489991|   -4.323922|   -5.660388|
|          23|   -5.961890|   -4.472999|   -4.318972|   -5.654055|
|          24|   -5.973740|   -4.457010|   -4.317546|   -5.647497|
|          25|   -5.985535|   -4.441917|   -4.316741|   -5.640926|
|          26|   -5.996688|   -4.427499|   -4.315921|   -5.634473|
|          27|   -6.006933|   -4.413643|   -4.314589|   -5.628186|
|          28|   -6.016241|   -4.400270|   -4.312612|   -5.622026|
|          29|   -6.024741|   -4.387327|   -4.310268|   -5.615929|
|          30|   -6.032583|   -4.374748|   -4.307956|   -5.609891|
|          31|   -6.039949|   -4.362442|   -4.306025|   -5.603918|
|          32|   -6.046832|   -4.350328|   -4.304614|   -5.598010|
|          33|   -6.053243|   -4.338346|   -4.303590|   -5.592128|
|          34|   -6.059150|   -4.326491|   -4.302637|   -5.586270|
|          35|   -6.064526|   -4.314804|   -4.301506|   -5.580475|
|          36|   -6.069360|   -4.303320|   -4.299115|   -5.574805|
|          37|   -6.073715|   -4.292068|   -4.295009|   -5.569349|
|          38|   -6.077689|   -4.281060|   -4.289133|   -5.564159|
|          39|   -6.081330|   -4.270319|   -4.283347|   -5.559230|
|          40|   -6.084460|   -4.259840|   -4.278257|   -5.554507|
|          41|   -6.086992|   -4.249589|   -4.274301|   -5.549923|
|          42|   -6.089015|   -4.239417|   -4.271256|   -5.545482|
|          43|   -6.090730|   -4.229151|   -4.269003|   -5.541245|
|          44|   -6.092196|   -4.218710|   -4.267124|   -5.537282|
|          45|   -6.093386|   -4.208259|   -4.266510|   -5.533605|
|          46|   -6.094121|   -4.198262|   -4.267277|   -5.530144|
|          47|   -6.094272|   -4.189114|   -4.268482|   -5.526751|
|          48|   -6.091895|   -4.180925|   -4.269246|   -5.523232|
|          49|   -6.089348|   -4.173846|   -4.270121|   -5.519601|
|          50|   -6.084823|   -4.167692|   -4.271434|   -5.515957|
|          51|   -6.081046|   -4.162814|   -4.273242|   -5.512253|
|          52|   -6.078766|   -4.159553|   -4.275574|   -5.508728|
|          53|   -6.076213|   -4.157338|   -4.278961|   -5.505424|
|          54|   -6.073189|   -4.155866|   -4.282806|   -5.502204|
|          55|   -6.069570|   -4.154905|   -4.286795|   -5.498864|
|          56|   -6.065675|   -4.154753|   -4.290349|   -5.495035|
|          57|   -6.060829|   -4.155498|   -4.292898|   -5.490422|
|          58|   -6.055507|   -4.157022|   -4.293628|   -5.484704|
|          59|   -6.048349|   -4.158497|   -4.292205|   -5.477716|
|          60|   -6.039589|   -4.158999|   -4.288430|   -5.469336|
|          61|   -6.027928|   -4.157335|   -4.282953|   -5.459680|
|          62|   -6.013420|   -4.152835|   -4.275082|   -5.448881|
|          63|   -5.995606|   -4.145748|   -4.263524|   -5.437101|
|          64|   -5.975497|   -4.137005|   -4.246288|   -5.424459|
|          65|   -5.952786|   -4.127570|   -4.222033|   -5.411244|
|          66|   -5.927533|   -4.117851|   -4.190542|   -5.397710|
|          67|   -5.901466|   -4.108366|   -4.153764|   -5.383728|
|          68|   -5.873464|   -4.099391|   -4.114634|   -5.369513|
|          69|   -5.843696|   -4.090919|   -4.075275|   -5.355587|
|          70|   -5.814284|   -4.082229|   -4.038494|   -5.342284|
|          71|   -5.783595|   -4.071859|   -4.007129|   -5.330509|
|          72|   -5.753848|   -4.058530|   -3.982898|   -5.321821|
|          73|   -5.728558|   -4.041940|   -3.967058|   -5.318468|
|          74|   -5.710942|   -4.022973|   -3.960606|   -5.320744|
|          75|   -5.703381|   -4.003765|   -3.964621|   -5.327081|
|          76|   -5.702195|   -3.987023|   -3.978323|   -5.335489|
|          77|   -5.707172|   -3.975913|   -3.994102|   -5.343356|
|          78|   -5.715606|   -3.970842|   -4.006511|   -5.350006|
|          79|   -5.725023|   -3.971161|   -4.015596|   -5.354547|
|          80|   -5.730353|   -3.972179|   -4.022983|   -5.356597|
|          81|   -5.730091|   -3.969541|   -4.028991|   -5.357537|
|          82|   -5.723591|   -3.962369|   -4.032664|   -5.358829|
|          83|   -5.710109|   -3.950345|   -4.032878|   -5.358812|
|          84|   -5.698223|   -3.935706|   -4.027481|   -5.356204|
|          85|   -5.691298|   -3.923806|   -4.016325|   -5.350204|
|          86|   -5.684963|   -3.917075|   -3.997379|   -5.339115|
|          87|   -5.671023|   -3.912829|   -3.970911|   -5.324557|
|          88|   -5.645634|   -3.906225|   -3.942402|   -5.310826|
|          89|   -5.615991|   -3.893386|   -3.917856|   -5.301198|
|          90|   -5.594685|   -3.878885|   -3.901894|   -5.297163|
|          91|   -5.585365|   -3.869140|   -3.894861|   -5.297679|
|          92|   -5.587955|   -3.866995|   -3.894178|   -5.301013|
|          93|   -5.596813|   -3.870287|   -3.898216|   -5.305676|
|          94|   -5.607778|   -3.875482|   -3.905289|   -5.311019|
|          95|   -5.620110|   -3.880124|   -3.913131|   -5.316310|
|          96|   -5.630165|   -3.882593|   -3.921142|   -5.322047|
|          97|   -5.639495|   -3.883303|   -3.929061|   -5.328794|
|          98|   -5.648833|   -3.883316|   -3.938047|   -5.336546|
|          99|   -5.658512|   -3.883181|   -3.948421|   -5.344941|
|         100|   -5.672703|   -3.884696|   -3.960947|   -5.353418|
+-----------------------------------------------------------------------+
|        File Writing Summary       |              Filename             |
+-----------------------------------------------------------------------+
|SU2 restart                        |restart_venturi_mixturedensity_30kW_fine_test.dat|
|                                   |                     (318.336 MB/s)|
|Paraview                           |flow_venturi_mixturedensity_30kW_fine_test_00000100.vtu|
|                                   |                     (6.51202 MB/s)|
|Paraview surface                   |surface_flow_venturi_mixturedensity_30kW_fine_test.vtu|
|                                   |                     (1.77865 MB/s)|
+-----------------------------------------------------------------------+
+----------------------------------------------------------------+
|  Inner_Iter|      rms[P]|      rms[U]|      rms[V]|      rms[c]|
+----------------------------------------------------------------+
|         101|   -5.693326|   -3.889797|   -3.975871|   -5.361027|
|         102|   -5.719976|   -3.899415|   -3.992071|   -5.365599|
|         103|   -5.746160|   -3.911910|   -4.007352|   -5.366702|
|         104|   -5.764651|   -3.923806|   -4.019117|   -5.364509|
|         105|   -5.768977|   -3.932476|   -4.025964|   -5.360211|
|         106|   -5.758773|   -3.936878|   -4.027119|   -5.354658|
|         107|   -5.739994|   -3.937440|   -4.024179|   -5.349444|
|         108|   -5.719917|   -3.936645|   -4.019811|   -5.346046|
|         109|   -5.708290|   -3.934600|   -4.014123|   -5.343277|
|         110|   -5.700334|   -3.933856|   -4.010804|   -5.342724|
|         111|   -5.699422|   -3.935341|   -4.009520|   -5.343005|
|         112|   -5.704567|   -3.937780|   -4.010837|   -5.343784|
|         113|   -5.711750|   -3.941327|   -4.014990|   -5.344544|
|         114|   -5.720487|   -3.945815|   -4.021722|   -5.345728|
|         115|   -5.730505|   -3.950954|   -4.029923|   -5.347496|
|         116|   -5.738922|   -3.955597|   -4.039089|   -5.350202|
|         117|   -5.746394|   -3.960066|   -4.048119|   -5.353808|
|         118|   -5.753402|   -3.965122|   -4.056293|   -5.358031|
|         119|   -5.757366|   -3.971139|   -4.061387|   -5.362454|
|         120|   -5.755982|   -3.977234|   -4.061856|   -5.367715|
|         121|   -5.753584|   -3.983337|   -4.058364|   -5.373940|
|         122|   -5.749014|   -3.989250|   -4.053837|   -5.381441|
|         123|   -5.745887|   -3.995375|   -4.049675|   -5.390743|
|         124|   -5.745440|   -4.002651|   -4.046910|   -5.401641|
|         125|   -5.747896|   -4.011444|   -4.046944|   -5.413819|
|         126|   -5.754712|   -4.022147|   -4.049144|   -5.426226|
|         127|   -5.766724|   -4.034933|   -4.053424|   -5.438495|
|         128|   -5.786563|   -4.049431|   -4.057950|   -5.449513|
|         129|   -5.810672|   -4.062916|   -4.061958|   -5.457277|
|         130|   -5.828871|   -4.073011|   -4.065534|   -5.462035|
|         131|   -5.840990|   -4.080150|   -4.067899|   -5.463553|
|         132|   -5.844874|   -4.084650|   -4.069281|   -5.462608|
|         133|   -5.840748|   -4.086238|   -4.068627|   -5.460716|
|         134|   -5.829391|   -4.084254|   -4.065449|   -5.459420|
|         135|   -5.817478|   -4.079528|   -4.061716|   -5.459891|
|         136|   -5.808081|   -4.074509|   -4.058643|   -5.461828|
|         137|   -5.805378|   -4.071761|   -4.056812|   -5.464795|
|         138|   -5.807216|   -4.071268|   -4.057298|   -5.469082|
|         139|   -5.814813|   -4.073706|   -4.059832|   -5.474000|
|         140|   -5.828027|   -4.079429|   -4.063590|   -5.478414|
|         141|   -5.840805|   -4.085867|   -4.068102|   -5.481806|
|         142|   -5.852114|   -4.091742|   -4.072173|   -5.484089|
|         143|   -5.860982|   -4.097287|   -4.074638|   -5.485481|
|         144|   -5.867085|   -4.101278|   -4.075011|   -5.485800|
|         145|   -5.870414|   -4.105092|   -4.074027|   -5.485008|
|         146|   -5.868326|   -4.107679|   -4.072477|   -5.483996|
|         147|   -5.860516|   -4.107229|   -4.069447|   -5.483931|
|         148|   -5.852655|   -4.104786|   -4.065864|   -5.485572|
|         149|   -5.848690|   -4.101644|   -4.062767|   -5.488655|
|         150|   -5.850832|   -4.099867|   -4.061385|   -5.492439|
|         151|   -5.858312|   -4.102046|   -4.062046|   -5.496100|
|         152|   -5.869170|   -4.106865|   -4.064769|   -5.499611|
|         153|   -5.879629|   -4.112212|   -4.069408|   -5.502990|
|         154|   -5.891508|   -4.117575|   -4.074601|   -5.505580|
|         155|   -5.902577|   -4.122870|   -4.079731|   -5.507049|
|         156|   -5.911352|   -4.127287|   -4.083953|   -5.507131|
|         157|   -5.915744|   -4.131438|   -4.086595|   -5.506107|
|         158|   -5.916682|   -4.134286|   -4.087066|   -5.504440|
|         159|   -5.915392|   -4.135531|   -4.085936|   -5.501993|
|         160|   -5.907193|   -4.135156|   -4.084266|   -5.499660|
|         161|   -5.898090|   -4.131859|   -4.081176|   -5.498284|
|         162|   -5.889631|   -4.126574|   -4.077507|   -5.497633|
|         163|   -5.885582|   -4.121580|   -4.073423|   -5.498004|
|         164|   -5.888196|   -4.119457|   -4.070315|   -5.498485|
|         165|   -5.895637|   -4.119652|   -4.068845|   -5.498408|
|         166|   -5.903825|   -4.122288|   -4.068537|   -5.497527|
|         167|   -5.909433|   -4.124601|   -4.069092|   -5.496008|
|         168|   -5.912067|   -4.124671|   -4.070179|   -5.494275|
|         169|   -5.915150|   -4.123777|   -4.070856|   -5.491861|
|         170|   -5.918414|   -4.123095|   -4.071027|   -5.488830|
|         171|   -5.920520|   -4.122533|   -4.070197|   -5.485032|
|         172|   -5.920062|   -4.122061|   -4.068220|   -5.480629|
|         173|   -5.917289|   -4.120341|   -4.064937|   -5.476054|
|         174|   -5.912724|   -4.116554|   -4.060856|   -5.471163|
|         175|   -5.905246|   -4.111226|   -4.056860|   -5.466613|
|         176|   -5.899058|   -4.104809|   -4.052699|   -5.462568|
|         177|   -5.893647|   -4.097144|   -4.048368|   -5.459031|
|         178|   -5.891644|   -4.090101|   -4.043812|   -5.456036|
|         179|   -5.893831|   -4.084822|   -4.039451|   -5.453248|
|         180|   -5.899278|   -4.080708|   -4.036309|   -5.450269|
|         181|   -5.906289|   -4.078331|   -4.034207|   -5.446874|
|         182|   -5.913114|   -4.076810|   -4.032920|   -5.443027|
|         183|   -5.917302|   -4.074284|   -4.032446|   -5.439178|
|         184|   -5.920947|   -4.070924|   -4.031986|   -5.435319|
|         185|   -5.923905|   -4.067664|   -4.031317|   -5.431362|
|         186|   -5.926641|   -4.064427|   -4.030113|   -5.427257|
|         187|   -5.928972|   -4.061883|   -4.028354|   -5.423078|
|         188|   -5.930770|   -4.060320|   -4.025807|   -5.418877|
|         189|   -5.931718|   -4.058201|   -4.022616|   -5.414727|
|         190|   -5.932119|   -4.056300|   -4.019056|   -5.410761|
|         191|   -5.931856|   -4.054216|   -4.015582|   -5.406866|
|         192|   -5.930013|   -4.050995|   -4.012406|   -5.403238|
|         193|   -5.929056|   -4.047439|   -4.009586|   -5.399998|
|         194|   -5.926763|   -4.043421|   -4.006691|   -5.397220|
|         195|   -5.925709|   -4.038850|   -4.003738|   -5.394907|
|         196|   -5.925933|   -4.034325|   -4.001483|   -5.393029|
|         197|   -5.927548|   -4.030666|   -4.000007|   -5.391404|
|         198|   -5.932014|   -4.028321|   -3.998876|   -5.389918|
|         199|   -5.936980|   -4.026733|   -3.998633|   -5.388472|
|         200|   -5.940969|   -4.025036|   -3.998929|   -5.387122|
+-----------------------------------------------------------------------+
|        File Writing Summary       |              Filename             |
+-----------------------------------------------------------------------+
|SU2 restart                        |restart_venturi_mixturedensity_30kW_fine_test.dat|
|                                   |                     (437.706 MB/s)|
|Paraview                           |flow_venturi_mixturedensity_30kW_fine_test_00000200.vtu|
|                                   |                     (6.64769 MB/s)|
|Paraview surface                   |surface_flow_venturi_mixturedensity_30kW_fine_test.vtu|
|                                   |                    (0.792656 MB/s)|
+-----------------------------------------------------------------------+
+----------------------------------------------------------------+
|  Inner_Iter|      rms[P]|      rms[U]|      rms[V]|      rms[c]|
+----------------------------------------------------------------+
|         201|   -5.942941|   -4.023309|   -3.999442|   -5.385870|
|         202|   -5.944566|   -4.021153|   -3.999845|   -5.384909|
|         203|   -5.946555|   -4.018410|   -4.000066|   -5.384163|
|         204|   -5.948016|   -4.016609|   -3.999925|   -5.383507|
|         205|   -5.950155|   -4.015568|   -3.998881|   -5.383098|
|         206|   -5.952423|   -4.014627|   -3.997088|   -5.382919|
|         207|   -5.956198|   -4.014500|   -3.994816|   -5.382834|
|         208|   -5.959923|   -4.014808|   -3.992312|   -5.382895|
|         209|   -5.964116|   -4.014918|   -3.989421|   -5.383118|
|         210|   -5.968230|   -4.014996|   -3.986435|   -5.383275|
|         211|   -5.971203|   -4.014396|   -3.983626|   -5.383553|
|         212|   -5.971865|   -4.013047|   -3.980831|   -5.384014|
|         213|   -5.972580|   -4.010807|   -3.977742|   -5.384721|
|         214|   -5.973041|   -4.007876|   -3.975087|   -5.385813|
|         215|   -5.974247|   -4.004800|   -3.972997|   -5.387167|
|         216|   -5.976177|   -4.001952|   -3.971536|   -5.388751|
|         217|   -5.980021|   -3.999881|   -3.970467|   -5.390452|
|         218|   -5.986478|   -3.998427|   -3.970129|   -5.392239|
|         219|   -5.993313|   -3.997350|   -3.971017|   -5.394151|
|         220|   -5.999418|   -3.996476|   -3.972501|   -5.396105|
|         221|   -6.004209|   -3.995585|   -3.974326|   -5.398099|
|         222|   -6.007554|   -3.994207|   -3.976479|   -5.400204|
|         223|   -6.010748|   -3.991930|   -3.978986|   -5.402504|
|         224|   -6.013988|   -3.989825|   -3.981820|   -5.404913|
|         225|   -6.018098|   -3.988605|   -3.984702|   -5.407460|
|         226|   -6.023540|   -3.987545|   -3.987483|   -5.410140|
|         227|   -6.029700|   -3.986317|   -3.990275|   -5.412957|
|         228|   -6.037988|   -3.985849|   -3.993221|   -5.415899|
|         229|   -6.047989|   -3.986186|   -3.996470|   -5.418885|
|         230|   -6.058089|   -3.986375|   -4.000007|   -5.421876|
|         231|   -6.068357|   -3.986303|   -4.003889|   -5.424921|
|         232|   -6.077037|   -3.986185|   -4.008013|   -5.428039|
|         233|   -6.084979|   -3.985660|   -4.012018|   -5.431288|
|         234|   -6.091046|   -3.984736|   -4.016128|   -5.434666|
|         235|   -6.098358|   -3.983369|   -4.020409|   -5.438314|
|         236|   -6.105570|   -3.982267|   -4.025336|   -5.441948|
|         237|   -6.116846|   -3.981222|   -4.030638|   -5.445801|
|         238|   -6.125772|   -3.981309|   -4.036517|   -5.449291|
|         239|   -6.136095|   -3.980909|   -4.042301|   -5.453035|
|         240|   -6.144069|   -3.981432|   -4.048364|   -5.456368|
|         241|   -6.151314|   -3.981362|   -4.054682|   -5.459990|
|         242|   -6.156011|   -3.981599|   -4.061080|   -5.463470|
|         243|   -6.161112|   -3.981644|   -4.067393|   -5.467206|
|         244|   -6.163748|   -3.981787|   -4.073496|   -5.471024|
|         245|   -6.168413|   -3.981731|   -4.079209|   -5.475050|
|         246|   -6.172858|   -3.981664|   -4.084708|   -5.479103|
|         247|   -6.176658|   -3.981741|   -4.089627|   -5.483149|
|         248|   -6.180540|   -3.981718|   -4.093998|   -5.487172|
|         249|   -6.181835|   -3.981522|   -4.097647|   -5.491204|
|         250|   -6.185709|   -3.980678|   -4.100705|   -5.495184|
|         251|   -6.187730|   -3.979993|   -4.103688|   -5.499081|
|         252|   -6.191859|   -3.979226|   -4.106155|   -5.502977|
|         253|   -6.194604|   -3.978490|   -4.108099|   -5.506792|
|         254|   -6.198357|   -3.977016|   -4.109904|   -5.510636|
|         255|   -6.201849|   -3.975344|   -4.111620|   -5.514466|
|         256|   -6.206131|   -3.973476|   -4.112930|   -5.518416|
|         257|   -6.209188|   -3.971518|   -4.113838|   -5.522420|
|         258|   -6.213363|   -3.969316|   -4.114174|   -5.526281|
|         259|   -6.217262|   -3.966642|   -4.114378|   -5.530094|
|         260|   -6.220719|   -3.963571|   -4.114155|   -5.533557|
|         261|   -6.224574|   -3.959927|   -4.113124|   -5.536969|
|         262|   -6.227299|   -3.956249|   -4.110949|   -5.539890|
|         263|   -6.226905|   -3.952352|   -4.107833|   -5.542538|
|         264|   -6.225206|   -3.948421|   -4.103983|   -5.544732|
|         265|   -6.219224|   -3.944468|   -4.099756|   -5.546722|
|         266|   -6.212771|   -3.940763|   -4.095227|   -5.548501|
|         267|   -6.204215|   -3.937446|   -4.090316|   -5.550017|
|         268|   -6.195501|   -3.934380|   -4.085598|   -5.551681|
|         269|   -6.186099|   -3.931907|   -4.081103|   -5.553221|
|         270|   -6.176595|   -3.929884|   -4.077023|   -5.554837|
|         271|   -6.170577|   -3.928326|   -4.073784|   -5.556838|
|         272|   -6.166923|   -3.927361|   -4.071375|   -5.558935|
|         273|   -6.164317|   -3.926785|   -4.069870|   -5.561239|
|         274|   -6.162772|   -3.926554|   -4.068860|   -5.563802|
|         275|   -6.166911|   -3.926960|   -4.068508|   -5.566455|
|         276|   -6.171806|   -3.928136|   -4.068923|   -5.569031|
|         277|   -6.178293|   -3.929668|   -4.069922|   -5.571412|
|         278|   -6.185342|   -3.931498|   -4.071254|   -5.573597|
|         279|   -6.192084|   -3.933466|   -4.072870|   -5.575782|
|         280|   -6.197644|   -3.935275|   -4.074783|   -5.577929|
|         281|   -6.202987|   -3.937180|   -4.076899|   -5.579978|
|         282|   -6.208400|   -3.939277|   -4.079289|   -5.582194|
|         283|   -6.213506|   -3.941813|   -4.082152|   -5.584414|
|         284|   -6.218316|   -3.944529|   -4.085559|   -5.586548|
|         285|   -6.221007|   -3.947135|   -4.089778|   -5.589100|
|         286|   -6.224205|   -3.949859|   -4.094784|   -5.591619|
|         287|   -6.227182|   -3.952741|   -4.100534|   -5.594403|
|         288|   -6.230872|   -3.956064|   -4.106751|   -5.597140|
|         289|   -6.234093|   -3.959596|   -4.113496|   -5.599965|
|         290|   -6.237620|   -3.963343|   -4.120890|   -5.602781|
|         291|   -6.244349|   -3.967222|   -4.128339|   -5.605527|
|         292|   -6.250339|   -3.971295|   -4.135416|   -5.607899|
|         293|   -6.254416|   -3.975398|   -4.142236|   -5.609950|
|         294|   -6.256242|   -3.979449|   -4.148542|   -5.611614|
|         295|   -6.256232|   -3.983179|   -4.154189|   -5.612914|
|         296|   -6.252376|   -3.986619|   -4.158950|   -5.613772|
|         297|   -6.244040|   -3.989747|   -4.162606|   -5.614304|
|         298|   -6.232076|   -3.992419|   -4.165052|   -5.614675|
|         299|   -6.218524|   -3.994670|   -4.166512|   -5.615199|
|         300|   -6.205571|   -3.996539|   -4.167059|   -5.615968|
+-----------------------------------------------------------------------+
|        File Writing Summary       |              Filename             |
+-----------------------------------------------------------------------+
|SU2 restart                        |restart_venturi_mixturedensity_30kW_fine_test.dat|
|                                   |                     (1105.07 MB/s)|
|Paraview                           |flow_venturi_mixturedensity_30kW_fine_test_00000300.vtu|
|                                   |                     (6.84627 MB/s)|
|Paraview surface                   |surface_flow_venturi_mixturedensity_30kW_fine_test.vtu|
|                                   |                     (1.64331 MB/s)|
+-----------------------------------------------------------------------+
+----------------------------------------------------------------+
|  Inner_Iter|      rms[P]|      rms[U]|      rms[V]|      rms[c]|
+----------------------------------------------------------------+
|         301|   -6.194577|   -3.998332|   -4.166742|   -5.617036|
|         302|   -6.185389|   -4.000302|   -4.165525|   -5.618610|
|         303|   -6.180764|   -4.002546|   -4.163473|   -5.620127|
|         304|   -6.177940|   -4.005056|   -4.160824|   -5.621588|
|         305|   -6.175447|   -4.007476|   -4.157633|   -5.623090|
|         306|   -6.173634|   -4.009845|   -4.153845|   -5.624528|
|         307|   -6.171009|   -4.012249|   -4.149337|   -5.625944|
|         308|   -6.168342|   -4.014575|   -4.144013|   -5.627208|
|         309|   -6.164153|   -4.016908|   -4.138303|   -5.628576|
|         310|   -6.159940|   -4.019204|   -4.132445|   -5.629783|
|         311|   -6.155035|   -4.021591|   -4.126756|   -5.630932|
|         312|   -6.150299|   -4.023907|   -4.121413|   -5.632066|
|         313|   -6.144340|   -4.026273|   -4.116667|   -5.633089|
|         314|   -6.137282|   -4.028575|   -4.112689|   -5.634151|
|         315|   -6.130453|   -4.030968|   -4.109504|   -5.635195|
|         316|   -6.122789|   -4.033580|   -4.107105|   -5.636272|
|         317|   -6.114388|   -4.036509|   -4.105539|   -5.637401|
|         318|   -6.106097|   -4.039973|   -4.104773|   -5.638545|
|         319|   -6.096482|   -4.043952|   -4.105067|   -5.639767|
|         320|   -6.085474|   -4.048512|   -4.106313|   -5.641263|
|         321|   -6.073388|   -4.053495|   -4.107583|   -5.643541|
|         322|   -6.063195|   -4.058693|   -4.107915|   -5.646913|
|         323|   -6.056479|   -4.064238|   -4.108200|   -5.651244|
|         324|   -6.052782|   -4.070445|   -4.109098|   -5.656281|
|         325|   -6.051150|   -4.077411|   -4.110506|   -5.661727|
|         326|   -6.050322|   -4.084726|   -4.112166|   -5.667440|
|         327|   -6.050036|   -4.092136|   -4.114003|   -5.673342|
|         328|   -6.049691|   -4.099661|   -4.115933|   -5.679312|
|         329|   -6.049128|   -4.106946|   -4.117845|   -5.685280|
|         330|   -6.048147|   -4.113790|   -4.119699|   -5.691181|
|         331|   -6.046771|   -4.120290|   -4.121480|   -5.696962|
|         332|   -6.044911|   -4.126325|   -4.123115|   -5.702628|
|         333|   -6.042202|   -4.131694|   -4.124532|   -5.708150|
|         334|   -6.039450|   -4.136386|   -4.125675|   -5.713335|
|         335|   -6.036041|   -4.140448|   -4.126516|   -5.718235|
|         336|   -6.032258|   -4.144027|   -4.127002|   -5.722629|
|         337|   -6.028133|   -4.147298|   -4.127201|   -5.726585|
|         338|   -6.023150|   -4.150363|   -4.127197|   -5.730098|
|         339|   -6.017008|   -4.153274|   -4.127091|   -5.733272|
|         340|   -6.009583|   -4.156138|   -4.127004|   -5.736528|
|         341|   -6.002679|   -4.159064|   -4.126992|   -5.740376|
|         342|   -5.997154|   -4.162286|   -4.127139|   -5.744841|
|         343|   -5.993510|   -4.165945|   -4.127544|   -5.749666|
|         344|   -5.991615|   -4.170114|   -4.128276|   -5.754528|
|         345|   -5.991120|   -4.174805|   -4.129363|   -5.759218|
|         346|   -5.991138|   -4.179946|   -4.130862|   -5.763488|
|         347|   -5.991628|   -4.185482|   -4.132752|   -5.767205|
|         348|   -5.992056|   -4.191365|   -4.135046|   -5.770379|
|         349|   -5.992253|   -4.197279|   -4.137748|   -5.773090|
|         350|   -5.992246|   -4.203146|   -4.140816|   -5.775658|
|         351|   -5.991873|   -4.208835|   -4.144097|   -5.777746|
|         352|   -5.991207|   -4.213942|   -4.146709|   -5.779046|
|         353|   -5.990448|   -4.218186|   -4.147098|   -5.779379|
|         354|   -5.989233|   -4.221519|   -4.146651|   -5.778346|
|         355|   -5.987423|   -4.223909|   -4.146136|   -5.775884|
|         356|   -5.984857|   -4.225150|   -4.145813|   -5.772119|
|         357|   -5.981580|   -4.225404|   -4.145643|   -5.767488|
|         358|   -5.977896|   -4.225114|   -4.145538|   -5.762107|
|         359|   -5.974503|   -4.224548|   -4.145378|   -5.756097|
|         360|   -5.971804|   -4.223885|   -4.145094|   -5.749389|
|         361|   -5.969877|   -4.223307|   -4.144519|   -5.741927|
|         362|   -5.968432|   -4.222918|   -4.143539|   -5.733804|
|         363|   -5.966949|   -4.222773|   -4.142236|   -5.725324|
|         364|   -5.965432|   -4.222872|   -4.140737|   -5.716703|
|         365|   -5.963552|   -4.223231|   -4.139209|   -5.708285|
|         366|   -5.961346|   -4.223680|   -4.137779|   -5.700431|
|         367|   -5.958882|   -4.224188|   -4.136584|   -5.693310|
|         368|   -5.956256|   -4.224758|   -4.135714|   -5.687166|
|         369|   -5.953600|   -4.225344|   -4.135210|   -5.682097|
|         370|   -5.951152|   -4.225899|   -4.135123|   -5.678237|
|         371|   -5.948956|   -4.226630|   -4.135338|   -5.675602|
|         372|   -5.947191|   -4.227668|   -4.136026|   -5.674162|
|         373|   -5.945855|   -4.228969|   -4.137255|   -5.673848|
|         374|   -5.944718|   -4.230390|   -4.138874|   -5.674560|
|         375|   -5.943974|   -4.231891|   -4.140910|   -5.676314|
|         376|   -5.943724|   -4.233609|   -4.143311|   -5.679077|
|         377|   -5.943932|   -4.235529|   -4.145998|   -5.682568|
|         378|   -5.945298|   -4.237522|   -4.148958|   -5.686686|
|         379|   -5.947414|   -4.239729|   -4.152044|   -5.691081|
|         380|   -5.950023|   -4.241828|   -4.155213|   -5.695611|
|         381|   -5.953200|   -4.243782|   -4.158356|   -5.699954|
|         382|   -5.956396|   -4.245833|   -4.161475|   -5.704129|
|         383|   -5.959836|   -4.247786|   -4.164559|   -5.708021|
|         384|   -5.963222|   -4.249539|   -4.167608|   -5.711255|
|         385|   -5.966321|   -4.251183|   -4.170726|   -5.713981|
|         386|   -5.969189|   -4.252642|   -4.173975|   -5.716473|
|         387|   -5.972340|   -4.253963|   -4.177377|   -5.718645|
|         388|   -5.975349|   -4.255042|   -4.180948|   -5.720534|
|         389|   -5.978729|   -4.256019|   -4.184715|   -5.722273|
|         390|   -5.981700|   -4.256702|   -4.188648|   -5.723674|
|         391|   -5.984577|   -4.257057|   -4.192667|   -5.724750|
|         392|   -5.987259|   -4.257127|   -4.196709|   -5.725359|
|         393|   -5.989700|   -4.257012|   -4.201025|   -5.725195|
|         394|   -5.991271|   -4.256496|   -4.205391|   -5.724841|
|         395|   -5.992820|   -4.255654|   -4.209827|   -5.723988|
|         396|   -5.994429|   -4.254581|   -4.214454|   -5.722754|
|         397|   -5.996074|   -4.253246|   -4.219155|   -5.720981|
|         398|   -5.997589|   -4.251607|   -4.223763|   -5.718887|
|         399|   -5.999111|   -4.249714|   -4.228222|   -5.716213|
|         400|   -6.000537|   -4.247423|   -4.232400|   -5.713118|
+-----------------------------------------------------------------------+
|        File Writing Summary       |              Filename             |
+-----------------------------------------------------------------------+
|SU2 restart                        |restart_venturi_mixturedensity_30kW_fine_test.dat|
|                                   |                     (777.347 MB/s)|
|Paraview                           |flow_venturi_mixturedensity_30kW_fine_test_00000400.vtu|
|                                   |                     (6.11415 MB/s)|
|Paraview surface                   |surface_flow_venturi_mixturedensity_30kW_fine_test.vtu|
|                                   |                     (1.35047 MB/s)|
+-----------------------------------------------------------------------+
+----------------------------------------------------------------+
|  Inner_Iter|      rms[P]|      rms[U]|      rms[V]|      rms[c]|
+----------------------------------------------------------------+
|         401|   -6.002082|   -4.244896|   -4.234019|   -5.709798|
|         402|   -6.002718|   -4.241972|   -4.233321|   -5.706365|
|         403|   -6.003710|   -4.238833|   -4.231574|   -5.703103|
|         404|   -6.006068|   -4.235994|   -4.229616|   -5.700025|
|         405|   -6.008182|   -4.232664|   -4.228275|   -5.697074|
|         406|   -6.010310|   -4.228346|   -4.226691|   -5.694317|
|         407|   -6.014428|   -4.224524|   -4.225558|   -5.691742|
|         408|   -6.017297|   -4.220061|   -4.225057|   -5.689040|
|         409|   -6.021123|   -4.216144|   -4.223728|   -5.686177|
|         410|   -6.023629|   -4.212245|   -4.221368|   -5.682822|
|         411|   -6.026784|   -4.207881|   -4.219195|   -5.679272|
|         412|   -6.028982|   -4.203908|   -4.218295|   -5.675356|
|         413|   -6.031519|   -4.201272|   -4.218770|   -5.671400|
|         414|   -6.032985|   -4.198368|   -4.220527|   -5.667431|
|         415|   -6.034281|   -4.195806|   -4.223141|   -5.663572|
|         416|   -6.035589|   -4.194011|   -4.226381|   -5.659890|
|         417|   -6.037761|   -4.191553|   -4.229162|   -5.656026|
|         418|   -6.039824|   -4.189126|   -4.231794|   -5.651721|
|         419|   -6.041274|   -4.186694|   -4.233812|   -5.647495|
|         420|   -6.042185|   -4.183646|   -4.235048|   -5.643150|
|         421|   -6.041537|   -4.180356|   -4.235579|   -5.637961|
|         422|   -6.039544|   -4.176720|   -4.235386|   -5.632382|
|         423|   -6.036496|   -4.172639|   -4.234434|   -5.625898|
|         424|   -6.031009|   -4.167933|   -4.232681|   -5.619424|
|         425|   -6.024611|   -4.162787|   -4.230128|   -5.612519|
|         426|   -6.016925|   -4.157062|   -4.226860|   -5.605370|
|         427|   -6.007160|   -4.150374|   -4.222931|   -5.598405|
|         428|   -5.996131|   -4.142591|   -4.217907|   -5.591636|
|         429|   -5.984474|   -4.133843|   -4.211679|   -5.585351|
|         430|   -5.972489|   -4.124356|   -4.204209|   -5.578579|
|         431|   -5.959230|   -4.113427|   -4.194941|   -5.571700|
|         432|   -5.946787|   -4.102265|   -4.183901|   -5.563929|
|         433|   -5.932899|   -4.090090|   -4.171381|   -5.555135|
|         434|   -5.918803|   -4.077228|   -4.157557|   -5.545343|
|         435|   -5.903945|   -4.064632|   -4.142716|   -5.534207|
|         436|   -5.886390|   -4.052459|   -4.127231|   -5.522111|
|         437|   -5.867057|   -4.040448|   -4.111186|   -5.510735|
|         438|   -5.848225|   -4.029261|   -4.095896|   -5.500235|
|         439|   -5.831624|   -4.018102|   -4.081481|   -5.490577|
|         440|   -5.817465|   -4.007379|   -4.068785|   -5.482543|
|         441|   -5.806320|   -3.998750|   -4.059427|   -5.478197|
|         442|   -5.799181|   -3.992144|   -4.055080|   -5.478562|
|         443|   -5.798801|   -3.988681|   -4.054240|   -5.482784|
|         444|   -5.805628|   -3.985082|   -4.055653|   -5.489599|
|         445|   -5.816183|   -3.980721|   -4.059135|   -5.498332|
|         446|   -5.829784|   -3.978308|   -4.063824|   -5.508402|
|         447|   -5.846205|   -3.979729|   -4.068635|   -5.518689|
|         448|   -5.864525|   -3.983891|   -4.072488|   -5.528345|
|         449|   -5.884027|   -3.988085|   -4.074378|   -5.536339|
|         450|   -5.896907|   -3.990859|   -4.074036|   -5.541903|
|         451|   -5.902289|   -3.992187|   -4.070908|   -5.545501|
|         452|   -5.894965|   -3.991113|   -4.066144|   -5.547451|
|         453|   -5.887172|   -3.990016|   -4.061147|   -5.549886|
|         454|   -5.882336|   -3.989753|   -4.059892|   -5.554073|
|         455|   -5.883484|   -3.990989|   -4.061721|   -5.559998|
|         456|   -5.896941|   -3.991614|   -4.067680|   -5.566599|
|         457|   -5.915453|   -3.991975|   -4.080210|   -5.573525|
|         458|   -5.944630|   -3.996246|   -4.096209|   -5.579679|
|         459|   -5.978084|   -4.002742|   -4.112273|   -5.584454|
|         460|   -6.013400|   -4.009040|   -4.126888|   -5.587792|
|         461|   -6.043926|   -4.014981|   -4.139276|   -5.589588|
|         462|   -6.071305|   -4.021158|   -4.149201|   -5.589586|
|         463|   -6.094636|   -4.026557|   -4.157051|   -5.588641|
|         464|   -6.110783|   -4.029926|   -4.163515|   -5.587347|
|         465|   -6.120052|   -4.031558|   -4.169344|   -5.584559|
|         466|   -6.122487|   -4.032396|   -4.174699|   -5.583051|
|         467|   -6.124422|   -4.033069|   -4.180036|   -5.580679|
|         468|   -6.119716|   -4.033414|   -4.185498|   -5.578629|
|         469|   -6.120396|   -4.034015|   -4.191112|   -5.575724|
|         470|   -6.124438|   -4.034500|   -4.197203|   -5.571830|
|         471|   -6.123069|   -4.034798|   -4.202385|   -5.568574|
|         472|   -6.122284|   -4.035141|   -4.205907|   -5.565306|
|         473|   -6.117073|   -4.035295|   -4.208566|   -5.562700|
|         474|   -6.110380|   -4.035219|   -4.210510|   -5.558973|
|         475|   -6.099352|   -4.034929|   -4.212349|   -5.554568|
|         476|   -6.082456|   -4.034346|   -4.213612|   -5.550334|
|         477|   -6.067201|   -4.033040|   -4.214543|   -5.547296|
|         478|   -6.055623|   -4.032465|   -4.215373|   -5.543795|
|         479|   -6.054081|   -4.031337|   -4.216567|   -5.539206|
|         480|   -6.041323|   -4.030060|   -4.215864|   -5.535456|
|         481|   -6.024953|   -4.027848|   -4.212495|   -5.532362|
|         482|   -6.009508|   -4.025624|   -4.208784|   -5.531897|
|         483|   -5.990212|   -4.023061|   -4.205877|   -5.527887|
|         484|   -5.981872|   -4.020755|   -4.202413|   -5.529527|
|         485|   -5.982951|   -4.019840|   -4.199678|   -5.531214|
|         486|   -5.983188|   -4.018808|   -4.197063|   -5.533718|
|         487|   -5.998468|   -4.018822|   -4.196542|   -5.535762|
|         488|   -6.010476|   -4.017884|   -4.196571|   -5.538090|
|         489|   -6.022965|   -4.017794|   -4.196545|   -5.541225|
|         490|   -6.036765|   -4.019738|   -4.197833|   -5.545046|
|         491|   -6.051736|   -4.023124|   -4.202007|   -5.549411|
|         492|   -6.070269|   -4.026850|   -4.207999|   -5.553854|
|         493|   -6.089989|   -4.030676|   -4.214187|   -5.558163|
|         494|   -6.107328|   -4.034281|   -4.219750|   -5.562273|
|         495|   -6.121053|   -4.037569|   -4.223631|   -5.566039|
|         496|   -6.130128|   -4.040435|   -4.225931|   -5.569295|
|         497|   -6.135612|   -4.043031|   -4.226293|   -5.572270|
|         498|   -6.138308|   -4.045610|   -4.224896|   -5.575120|
|         499|   -6.139120|   -4.048226|   -4.223284|   -5.577601|
|         500|   -6.137100|   -4.050899|   -4.222250|   -5.579690|
+-----------------------------------------------------------------------+
|        File Writing Summary       |              Filename             |
+-----------------------------------------------------------------------+
|SU2 restart                        |restart_venturi_mixturedensity_30kW_fine_test.dat|
|                                   |                     (375.541 MB/s)|
|Paraview                           |flow_venturi_mixturedensity_30kW_fine_test_00000500.vtu|
|                                   |                     (4.94932 MB/s)|
|Paraview surface                   |surface_flow_venturi_mixturedensity_30kW_fine_test.vtu|
|                                   |                     (1.00049 MB/s)|
+-----------------------------------------------------------------------+
+----------------------------------------------------------------+
|  Inner_Iter|      rms[P]|      rms[U]|      rms[V]|      rms[c]|
+----------------------------------------------------------------+
|         501|   -6.133043|   -4.053444|   -4.221389|   -5.581506|
|         502|   -6.126562|   -4.055487|   -4.219275|   -5.583307|
|         503|   -6.123059|   -4.056958|   -4.216064|   -5.585370|
|         504|   -6.122925|   -4.058034|   -4.212896|   -5.587816|
|         505|   -6.125576|   -4.059072|   -4.210257|   -5.590598|
|         506|   -6.130962|   -4.060272|   -4.208072|   -5.593480|
|         507|   -6.136267|   -4.061640|   -4.206078|   -5.596327|
|         508|   -6.141053|   -4.063509|   -4.204000|   -5.598907|
|         509|   -6.145169|   -4.066231|   -4.201654|   -5.601176|
|         510|   -6.147789|   -4.069692|   -4.198657|   -5.603216|
|         511|   -6.148566|   -4.073609|   -4.194670|   -5.605091|
|         512|   -6.147857|   -4.077682|   -4.189550|   -5.606861|
|         513|   -6.146068|   -4.081705|   -4.183358|   -5.608586|
|         514|   -6.143581|   -4.085499|   -4.176409|   -5.610284|
|         515|   -6.140643|   -4.088966|   -4.169111|   -5.611954|
|         516|   -6.137872|   -4.092082|   -4.161885|   -5.613583|
|         517|   -6.135511|   -4.094924|   -4.155077|   -5.615185|
|         518|   -6.134041|   -4.097603|   -4.148844|   -5.616744|
|         519|   -6.132967|   -4.100172|   -4.143119|   -5.618264|
|         520|   -6.132265|   -4.102618|   -4.137851|   -5.619774|
|         521|   -6.131958|   -4.104903|   -4.133027|   -5.621255|
|         522|   -6.131778|   -4.106959|   -4.128766|   -5.622706|
|         523|   -6.131729|   -4.108777|   -4.125124|   -5.624095|
|         524|   -6.131498|   -4.110335|   -4.121969|   -5.625435|
|         525|   -6.130859|   -4.111572|   -4.119130|   -5.626751|
|         526|   -6.129910|   -4.112328|   -4.116506|   -5.628073|
|         527|   -6.128576|   -4.112555|   -4.114098|   -5.629435|
|         528|   -6.126756|   -4.112291|   -4.111954|   -5.630838|
|         529|   -6.124694|   -4.111646|   -4.110175|   -5.632302|
|         530|   -6.122503|   -4.110843|   -4.108884|   -5.633819|
|         531|   -6.120356|   -4.110107|   -4.108178|   -5.635370|
|         532|   -6.118002|   -4.109408|   -4.108043|   -5.636946|
|         533|   -6.115630|   -4.108652|   -4.108281|   -5.638537|
|         534|   -6.113184|   -4.107747|   -4.108542|   -5.640156|
|         535|   -6.111045|   -4.106661|   -4.108658|   -5.641787|
|         536|   -6.109510|   -4.105637|   -4.108572|   -5.643422|
|         537|   -6.108870|   -4.105350|   -4.108479|   -5.645072|
|         538|   -6.109444|   -4.106868|   -4.108362|   -5.646732|
|         539|   -6.110959|   -4.110604|   -4.108059|   -5.648460|
|         540|   -6.113390|   -4.115637|   -4.107859|   -5.650261|
|         541|   -6.115833|   -4.121311|   -4.108196|   -5.652134|
|         542|   -6.117727|   -4.127195|   -4.109037|   -5.654103|
|         543|   -6.119739|   -4.132687|   -4.110170|   -5.656100|
|         544|   -6.121433|   -4.137150|   -4.111471|   -5.658089|
|         545|   -6.123240|   -4.140454|   -4.112946|   -5.660000|
|         546|   -6.124851|   -4.143067|   -4.114245|   -5.661809|
|         547|   -6.126196|   -4.145361|   -4.115155|   -5.663487|
|         548|   -6.126911|   -4.147411|   -4.115667|   -5.665062|
|         549|   -6.127529|   -4.149348|   -4.115684|   -5.666476|
|         550|   -6.127191|   -4.151155|   -4.115110|   -5.667818|
|         551|   -6.126859|   -4.152890|   -4.114049|   -5.669074|
|         552|   -6.126195|   -4.154586|   -4.112746|   -5.670244|
|         553|   -6.125384|   -4.156208|   -4.111430|   -5.671423|
|         554|   -6.125021|   -4.157801|   -4.110262|   -5.672623|
|         555|   -6.125070|   -4.159296|   -4.109256|   -5.673914|
|         556|   -6.126022|   -4.160786|   -4.108346|   -5.675230|
|         557|   -6.127326|   -4.162053|   -4.107546|   -5.676568|
|         558|   -6.129082|   -4.162985|   -4.106771|   -5.677886|
|         559|   -6.131016|   -4.163680|   -4.105969|   -5.679161|
|         560|   -6.132952|   -4.164199|   -4.105141|   -5.680369|
|         561|   -6.134657|   -4.164545|   -4.104309|   -5.681524|
|         562|   -6.136096|   -4.164724|   -4.103429|   -5.682611|
|         563|   -6.137054|   -4.164627|   -4.102548|   -5.683687|
|         564|   -6.137577|   -4.164099|   -4.101733|   -5.684775|
|         565|   -6.137923|   -4.163082|   -4.100944|   -5.685911|
|         566|   -6.138180|   -4.161645|   -4.100105|   -5.687119|
|         567|   -6.138398|   -4.159870|   -4.099232|   -5.688433|
|         568|   -6.138959|   -4.157849|   -4.098374|   -5.689851|
|         569|   -6.140159|   -4.155710|   -4.097759|   -5.691374|
|         570|   -6.141882|   -4.153690|   -4.097481|   -5.692987|
|         571|   -6.144218|   -4.151755|   -4.097431|   -5.694673|
|         572|   -6.147045|   -4.149904|   -4.097575|   -5.696412|
|         573|   -6.150092|   -4.148202|   -4.097891|   -5.698171|
|         574|   -6.153305|   -4.146538|   -4.098345|   -5.699907|
|         575|   -6.156489|   -4.144803|   -4.098900|   -5.701606|
|         576|   -6.159415|   -4.143078|   -4.099405|   -5.703238|
|         577|   -6.162113|   -4.141332|   -4.099875|   -5.704802|
|         578|   -6.164378|   -4.139542|   -4.100309|   -5.706320|
|         579|   -6.166288|   -4.137666|   -4.100720|   -5.707861|
|         580|   -6.167835|   -4.135667|   -4.101223|   -5.709462|
|         581|   -6.169315|   -4.133515|   -4.101852|   -5.711183|
|         582|   -6.170734|   -4.131147|   -4.102696|   -5.713045|
|         583|   -6.172272|   -4.128557|   -4.103760|   -5.715096|
|         584|   -6.174488|   -4.125797|   -4.105035|   -5.717376|
|         585|   -6.177051|   -4.123050|   -4.106532|   -5.719774|
|         586|   -6.180036|   -4.120292|   -4.108215|   -5.722374|
|         587|   -6.184250|   -4.117674|   -4.110157|   -5.725090|
|         588|   -6.188650|   -4.115253|   -4.112359|   -5.727862|
|         589|   -6.193071|   -4.112978|   -4.114708|   -5.730707|
|         590|   -6.198033|   -4.110901|   -4.117135|   -5.733626|
|         591|   -6.203033|   -4.108938|   -4.119641|   -5.736574|
|         592|   -6.207953|   -4.107049|   -4.122233|   -5.739518|
|         593|   -6.212662|   -4.105263|   -4.124954|   -5.742435|
|         594|   -6.217179|   -4.103529|   -4.127742|   -5.745337|
|         595|   -6.221544|   -4.101792|   -4.130497|   -5.748212|
|         596|   -6.225649|   -4.100042|   -4.133191|   -5.751072|
|         597|   -6.229434|   -4.098263|   -4.135553|   -5.753950|
|         598|   -6.232795|   -4.096390|   -4.137618|   -5.756914|
|         599|   -6.236030|   -4.094386|   -4.139722|   -5.760037|
|         600|   -6.239397|   -4.092302|   -4.142017|   -5.763345|
+-----------------------------------------------------------------------+
|        File Writing Summary       |              Filename             |
+-----------------------------------------------------------------------+
|SU2 restart                        |restart_venturi_mixturedensity_30kW_fine_test.dat|
|                                   |                     (659.381 MB/s)|
|Paraview                           |flow_venturi_mixturedensity_30kW_fine_test_00000600.vtu|
|                                   |                     (6.34622 MB/s)|
|Paraview surface                   |surface_flow_venturi_mixturedensity_30kW_fine_test.vtu|
|                                   |                     (1.63475 MB/s)|
+-----------------------------------------------------------------------+
+----------------------------------------------------------------+
|  Inner_Iter|      rms[P]|      rms[U]|      rms[V]|      rms[c]|
+----------------------------------------------------------------+
|         601|   -6.242837|   -4.090169|   -4.144546|   -5.766884|
|         602|   -6.247131|   -4.088062|   -4.147395|   -5.770568|
|         603|   -6.251576|   -4.085971|   -4.150511|   -5.774496|
|         604|   -6.257320|   -4.083994|   -4.153882|   -5.778532|
|         605|   -6.262925|   -4.082124|   -4.157440|   -5.782642|
|         606|   -6.269964|   -4.080365|   -4.161228|   -5.786860|
|         607|   -6.276842|   -4.078756|   -4.165275|   -5.791032|
|         608|   -6.284260|   -4.077200|   -4.169471|   -5.795301|
|         609|   -6.291938|   -4.075777|   -4.173794|   -5.799476|
|         610|   -6.299536|   -4.074337|   -4.178281|   -5.803707|
|         611|   -6.307552|   -4.072994|   -4.182933|   -5.807931|
|         612|   -6.315772|   -4.071763|   -4.187723|   -5.812077|
|         613|   -6.323963|   -4.070548|   -4.192657|   -5.816154|
|         614|   -6.332224|   -4.069337|   -4.197753|   -5.820137|
|         615|   -6.340547|   -4.068174|   -4.202964|   -5.824015|
|         616|   -6.348550|   -4.067054|   -4.208195|   -5.827809|
|         617|   -6.356312|   -4.065922|   -4.213332|   -5.831517|
|         618|   -6.363745|   -4.064748|   -4.218381|   -5.835226|
|         619|   -6.370843|   -4.063543|   -4.223373|   -5.839068|
|         620|   -6.377634|   -4.062301|   -4.228344|   -5.843069|
|         621|   -6.385098|   -4.061019|   -4.233342|   -5.847333|
|         622|   -6.392553|   -4.059764|   -4.238488|   -5.851768|
|         623|   -6.402071|   -4.058566|   -4.243616|   -5.856644|
|         624|   -6.411636|   -4.057623|   -4.248896|   -5.861434|
|         625|   -6.422428|   -4.056803|   -4.254104|   -5.866643|
|         626|   -6.435918|   -4.056304|   -4.259515|   -5.871872|
|         627|   -6.448465|   -4.056012|   -4.265030|   -5.877077|
|         628|   -6.462623|   -4.055905|   -4.270620|   -5.882463|
|         629|   -6.477670|   -4.056083|   -4.276279|   -5.887742|
|         630|   -6.492038|   -4.056446|   -4.281954|   -5.893022|
|         631|   -6.506066|   -4.056968|   -4.287535|   -5.898337|
|         632|   -6.519916|   -4.057646|   -4.292941|   -5.903633|
|         633|   -6.532936|   -4.058463|   -4.298074|   -5.908884|
|         634|   -6.544510|   -4.059426|   -4.302739|   -5.914101|
|         635|   -6.554367|   -4.060487|   -4.306792|   -5.919244|
|         636|   -6.562414|   -4.061633|   -4.310304|   -5.924304|
|         637|   -6.568233|   -4.062892|   -4.313364|   -5.929251|
|         638|   -6.571671|   -4.064259|   -4.315981|   -5.934137|
|         639|   -6.572322|   -4.065669|   -4.318096|   -5.938903|
|         640|   -6.570817|   -4.067041|   -4.319660|   -5.943548|
|         641|   -6.566646|   -4.068318|   -4.320639|   -5.948215|
|         642|   -6.561191|   -4.069496|   -4.321028|   -5.952876|
|         643|   -6.553823|   -4.070546|   -4.320868|   -5.957682|
|         644|   -6.547283|   -4.071509|   -4.320246|   -5.962656|
|         645|   -6.540898|   -4.072501|   -4.319287|   -5.967819|
|         646|   -6.534131|   -4.073561|   -4.318089|   -5.973052|
|         647|   -6.528957|   -4.074700|   -4.316787|   -5.978540|
|         648|   -6.525541|   -4.075982|   -4.315714|   -5.984143|
|         649|   -6.520906|   -4.077373|   -4.314897|   -5.989587|
|         650|   -6.517911|   -4.078771|   -4.314312|   -5.995341|
|         651|   -6.518269|   -4.080313|   -4.314106|   -6.001084|
|         652|   -6.518068|   -4.082018|   -4.314138|   -6.006567|
|         653|   -6.516520|   -4.083765|   -4.314272|   -6.011865|
|         654|   -6.515348|   -4.085549|   -4.314526|   -6.017138|
|         655|   -6.514578|   -4.087510|   -4.314891|   -6.022308|
|         656|   -6.513451|   -4.089651|   -4.315265|   -6.027371|
|         657|   -6.511529|   -4.091900|   -4.315622|   -6.032315|
|         658|   -6.508984|   -4.094241|   -4.316016|   -6.037200|
|         659|   -6.505943|   -4.096715|   -4.316509|   -6.041959|
|         660|   -6.502410|   -4.099285|   -4.317113|   -6.046579|
|         661|   -6.498103|   -4.101884|   -4.317784|   -6.051038|
|         662|   -6.493251|   -4.104487|   -4.318421|   -6.055299|
|         663|   -6.487876|   -4.107088|   -4.318907|   -6.059378|
|         664|   -6.481705|   -4.109676|   -4.319138|   -6.063335|
|         665|   -6.475161|   -4.112237|   -4.319078|   -6.067244|
|         666|   -6.468169|   -4.114782|   -4.318784|   -6.071207|
|         667|   -6.460872|   -4.117351|   -4.318357|   -6.075253|
|         668|   -6.453888|   -4.119977|   -4.317855|   -6.079513|
|         669|   -6.446487|   -4.122714|   -4.317366|   -6.083939|
|         670|   -6.440485|   -4.125610|   -4.316970|   -6.088598|
|         671|   -6.433865|   -4.128671|   -4.316742|   -6.093288|
|         672|   -6.428414|   -4.131893|   -4.316584|   -6.098209|
|         673|   -6.422421|   -4.135304|   -4.316592|   -6.102846|
|         674|   -6.416983|   -4.138843|   -4.316754|   -6.107601|
|         675|   -6.410651|   -4.142555|   -4.317051|   -6.112210|
|         676|   -6.404246|   -4.146382|   -4.317441|   -6.116779|
|         677|   -6.397630|   -4.150351|   -4.317935|   -6.121090|
|         678|   -6.390254|   -4.154411|   -4.318529|   -6.125444|
|         679|   -6.383052|   -4.158580|   -4.319147|   -6.129533|
|         680|   -6.375393|   -4.162827|   -4.319736|   -6.133421|
|         681|   -6.367478|   -4.167076|   -4.320312|   -6.137025|
|         682|   -6.359673|   -4.171347|   -4.320864|   -6.140500|
|         683|   -6.351283|   -4.175626|   -4.321334|   -6.143714|
|         684|   -6.343187|   -4.179827|   -4.321642|   -6.146655|
|         685|   -6.334473|   -4.183882|   -4.321878|   -6.149847|
|         686|   -6.326269|   -4.187732|   -4.322021|   -6.152790|
|         687|   -6.317745|   -4.191393|   -4.322113|   -6.155889|
|         688|   -6.309922|   -4.194838|   -4.322151|   -6.159193|
|         689|   -6.302058|   -4.198159|   -4.322291|   -6.162214|
|         690|   -6.295084|   -4.201376|   -4.322526|   -6.165259|
|         691|   -6.288241|   -4.204573|   -4.322967|   -6.167546|
|         692|   -6.281832|   -4.207788|   -4.323548|   -6.169308|
|         693|   -6.275520|   -4.211064|   -4.324437|   -6.170331|
|         694|   -6.269144|   -4.214359|   -4.325666|   -6.170487|
|         695|   -6.262890|   -4.217615|   -4.327203|   -6.169836|
|         696|   -6.256517|   -4.220836|   -4.329047|   -6.168219|
|         697|   -6.250131|   -4.223979|   -4.331143|   -6.165632|
|         698|   -6.243685|   -4.227006|   -4.333244|   -6.162052|
|         699|   -6.237189|   -4.229909|   -4.335059|   -6.157381|
|         700|   -6.230594|   -4.232722|   -4.336686|   -6.151774|
+-----------------------------------------------------------------------+
|        File Writing Summary       |              Filename             |
+-----------------------------------------------------------------------+
|SU2 restart                        |restart_venturi_mixturedensity_30kW_fine_test.dat|
|                                   |                     (437.252 MB/s)|
|Paraview                           |flow_venturi_mixturedensity_30kW_fine_test_00000700.vtu|
