scsub> Executing:  'cd /home/hem1dev/Codes/SU2_Github_Mark_Test/SU2/Venturi'


WARNING: CONV_CRITERIA is deprecated. SU2 will choose the criteria automatically based on the CONV_FIELD.
That is, RESIDUAL for any RMS_* BGS_* value, and CAUCHY for coefficients such as DRAG etc.


-------------------------------------------------------------------------
|    ___ _   _ ___                                                      |
|   / __| | | |_  )   Release 7.1.1 "Blackbird"                         |
|   \__ \ |_| |/ /                                                      |
|   |___/\___//___|   Suite (Computational Fluid Dynamics Code)         |
|                                                                       |
-------------------------------------------------------------------------
| SU2 Project Website: https://su2code.github.io                        |
|                                                                       |
| The SU2 Project is maintained by the SU2 Foundation                   |
| (http://su2foundation.org)                                            |
-------------------------------------------------------------------------
| Copyright 2012-2021, SU2 Contributors                                 |
|                                                                       |
| SU2 is free software; you can redistribute it and/or                  |
| modify it under the terms of the GNU Lesser General Public            |
| License as published by the Free Software Foundation; either          |
| version 2.1 of the License, or (at your option) any later version.    |
|                                                                       |
| SU2 is distributed in the hope that it will be useful,                |
| but WITHOUT ANY WARRANTY; without even the implied warranty of        |
| MERCHANTABILITY or FITNESS FOR A PARTICULAR PURPOSE. See the GNU      |
| Lesser General Public License for more details.                       |
|                                                                       |
| You should have received a copy of the GNU Lesser General Public      |
| License along with SU2. If not, see <http://www.gnu.org/licenses/>.   |
-------------------------------------------------------------------------


WARNING: CONV_CRITERIA is deprecated. SU2 will choose the criteria automatically based on the CONV_FIELD.
That is, RESIDUAL for any RMS_* BGS_* value, and CAUCHY for coefficients such as DRAG etc.


Parsing config file for zone 0


WARNING: CONV_CRITERIA is deprecated. SU2 will choose the criteria automatically based on the CONV_FIELD.
That is, RESIDUAL for any RMS_* BGS_* value, and CAUCHY for coefficients such as DRAG etc.


----------------- Physical Case Definition ( Zone 0 ) -------------------
Incompressible RANS equations.
Turbulence model: Menter's SST
Hybrid RANS/LES: No Hybrid RANS/LES
No restart solution, use the values at infinity (freestream).
Dimensional simulation.
The reference area is 1 m^2.
The semi-span will be computed using the max y(3D) value.
The reference length is 1 m.
Input mesh file name: c6_cms_venturi.cgns

--------------- Space Numerical Integration ( Zone 0 ) ------------------
Flux difference splitting (FDS) upwind scheme for the flow inviscid terms.
Second order integration in space, with slope limiter.
No slope-limiting method. 
Average of gradients with correction (viscous flow terms).
Average of gradients with correction (viscous turbulence terms).
Gradient for upwind reconstruction: inverse-distance weighted Least-Squares.
Gradient for viscous and source terms: inverse-distance weighted Least-Squares.

--------------- Time Numerical Integration  ( Zone 0 ) ------------------
Local time stepping (steady state simulation).
Euler implicit method for the flow equations.
FGMRES is used for solving the linear system.
Using a ILU(0) preconditioning.
Convergence criteria of the linear solver: 1e-08.
Max number of linear iterations: 20.
No CFL adaptation.
Courant-Friedrichs-Lewy number:      100
Euler implicit time integration for the turbulence model.

------------------ Convergence Criteria  ( Zone 0 ) ---------------------
Maximum number of solver subiterations: 10000.
Begin convergence monitoring at iteration 10.
Residual minimum value: 1e-10.
Cauchy series min. value: 1e-06.
Number of Cauchy elements: 100.
Begin windowed time average at iteration 0.

-------------------- Output Information ( Zone 0 ) ----------------------
Writing solution files every 500 iterations.
Writing the convergence history file every 1 inner iterations.
Writing the screen convergence history every 1 inner iterations.
The tabular file format is CSV (.csv).
Convergence history file name: history_test.
Forces breakdown file name: forces_breakdown.dat.
Surface file name: surface_flow_venturi_mixturedensity_30kW_fine_test.
Volume file name: flow_venturi_mixturedensity_30kW_fine_test.
Restart file name: restart_venturi_mixturedensity_30kW_fine_test.dat.

------------- Config File Boundary Information ( Zone 0 ) ---------------
+-----------------------------------------------------------------------+
|                        Marker Type|                        Marker Name|
+-----------------------------------------------------------------------+
|                     Symmetry plane|                               axis|
+-----------------------------------------------------------------------+
|                     Inlet boundary|                          gas_inlet|
|                                   |                          air_inlet|
+-----------------------------------------------------------------------+
|                    Outlet boundary|                             outlet|
+-----------------------------------------------------------------------+
|                     Heat flux wall|            wall-component1-surface|
+-----------------------------------------------------------------------+

-------------------- Output Preprocessing ( Zone 0 ) --------------------
Screen output fields: INNER_ITER, RMS_PRESSURE, RMS_VELOCITY-X, RMS_VELOCITY-Y, RMS_PASSIVE_SCALAR
History output group(s): RMS_RES, AERO_COEFF, FLOW_COEFF
Convergence field(s): RMS_PRESSURE, RMS_VELOCITY-X, RMS_VELOCITY-Y, RMS_TKE
Warning: No (valid) fields chosen for time convergence monitoring. Time convergence monitoring inactive.
  Info: Ignoring the following volume output fields/groups:
  SOURCE, LOOKUP
Volume output fields: DENSITY, SOLUTION, PRIMITIVE, RESIDUAL, COORDINATES

------------------- Geometry Preprocessing ( Zone 0 ) -------------------
Reading the CGNS file: c6_cms_venturi.cgns.
CGNS file contains 1 database(s).
Database 1, Base:  cell dimension of 2, physical dimension of 2.
1 total zone(s).
Zone 1, Zone: 292948 total vertices, 295883 total elements.
Loading CoordinateX values into linear partitions.
Loading CoordinateY values into linear partitions.
Distributing connectivity across all ranks.
Number of connectivity sections is 6.
Section gas_inlet contains 51 elements of type Mixed.
Section air_inlet contains 150 elements of type Mixed.
Section outlet contains 157 elements of type Mixed.
Section axis contains 1721 elements of type Mixed.
Section component1-surface contains 290183 elements of type Mixed.
Section wall-component1-surface contains 3621 elements of type Mixed.
Loading surface section gas_inlet from file.
Loading surface section air_inlet from file.
Loading surface section outlet from file.
Loading surface section axis from file.
Loading volume section component1-surface from file.
Loading surface section wall-component1-surface from file.
Two dimensional problem.
292948 grid points before partitioning.
290183 volume elements before partitioning.
5 surface markers.
51 boundary elements in index 0 (Marker = gas_inlet).
150 boundary elements in index 1 (Marker = air_inlet).
157 boundary elements in index 2 (Marker = outlet).
1721 boundary elements in index 3 (Marker = axis).
3621 boundary elements in index 4 (Marker = wall-component1-surface).
Executing the partitioning functions.
Building the graph adjacency structure.
Calling ParMETIS... graph partitioning complete (8746 edge cuts).
Distributing ParMETIS coloring.
Rebalancing vertices.
Rebalancing volume element connectivity.
Rebalancing markers and surface elements.
310564 vertices including ghost points. 
298925 interior elements including halo cells. 
176 triangles.
298749 quadrilaterals.
Establishing MPI communication patterns.
Setting point connectivity.
Renumbering points (Reverse Cuthill McKee Ordering).
Recomputing point connectivity.
Setting element connectivity.
Checking the numerical grid orientation.
All volume elements are correctly orientend.
All surface elements are correctly orientend.
Identifying edges and vertices.
Setting the control volume structure.
Area of the computational grid: 0.00281152.
Searching for the closest normal neighbors to the surfaces.
Storing a mapping from global to local point index.
Compute the surface curvature.
Max K: 25766.3. Mean K: 66.0693. Standard deviation K: 1007.76.
Checking for periodicity.
Computing mesh quality statistics for the dual control volumes.
+--------------------------------------------------------------+
|           Mesh Quality Metric|        Minimum|        Maximum|
+--------------------------------------------------------------+
|    Orthogonality Angle (deg.)|        45.2115|             90|
|     CV Face Area Aspect Ratio|              1|        10.3208|
|           CV Sub-Volume Ratio|              1|        9.85984|
+--------------------------------------------------------------+
Finding max control volume width.
Communicating number of neighbors.
Wetted area = 0 m.
Area projection in the x-plane = 0 m, y-plane = 0 m.
Max. coordinate in the x-direction = -1e+10 m, y-direction = -1e+10 m.
Min. coordinate in the x-direction = 1e+10 m, y-direction = 1e+10 m.
Checking if Euler & Symmetry markers are straight/plane:
Boundary marker axis is a single straight.
Computing wall distances.

-------------------- Solver Preprocessing ( Zone 0 ) --------------------
Incompressible flow: rho_ref, vel_ref, temp_ref, p_ref
are set to 1.0 in order to perform a dimensional calculation.
Force coefficients computed using initial values.
The reference area for force coeffs. is 1 m^2.
The reference length for force coeffs. is 1 m.
The pressure is decomposed into thermodynamic and dynamic components.
The initial value of the dynamic pressure is 0.
Mach number: 0, computed using fluid speed of sound.
For external flows, the initial state is imposed at the far-field.
Angle of attack (deg): 0, computed using the initial velocity.
Side slip angle (deg): 0, computed using the initial velocity.
Reynolds number per meter: 65290.8, computed using initial values.
Reynolds number is a byproduct of inputs only (not used internally).
SI units only. The grid should be dimensional (meters).
Energy equation is active and coupled for variable density.

-- Models:
+------------------------------------------------------------------------------+
|          Viscosity Model|        Conductivity Model|              Fluid Model|
+------------------------------------------------------------------------------+
|       CONSTANT_VISCOSITY|                  CONSTANT|+------------------------------------------------------------------------------+
-- Fluid properties:
+------------------------------------------------------------------------------+
|                  Name|    Dim. value|    Ref. value|      Unit|Non-dim. value|
+------------------------------------------------------------------------------+
|             Viscosity|     1.118e-05|             1|   N.s/m^2|     1.118e-05|
+------------------------------------------------------------------------------+
|       Molecular Cond.|         0.072|             1|   W/m^2.K|         0.072|
+------------------------------------------------------------------------------+
-- Initial and free-stream conditions:
+------------------------------------------------------------------------------+
|                  Name|    Dim. value|    Ref. value|      Unit|Non-dim. value|
+------------------------------------------------------------------------------+
|      Dynamic Pressure|             0|             1|        Pa|             0|
|        Total Pressure|      0.585985|             1|        Pa|      0.585985|
|               Density|       1.17197|             1|    kg/m^3|       1.17197|
|           Temperature|           300|             1|         K|           300|
|            Velocity-X|             1|             1|       m/s|             1|
|            Velocity-Y|             0|             1|       m/s|             0|
|    Velocity Magnitude|             1|             1|       m/s|             1|
+------------------------------------------------------------------------------+
|             Viscosity|     1.795e-05|             1|   N.s/m^2|     1.795e-05|
|          Conductivity|             -|             1|   W/m^2.K|             -|
|     Turb. Kin. Energy|       0.00375|             1|   m^2/s^2|       0.00375|
|     Spec. Dissipation|       24.4841|             1|       1/s|       24.4841|
+------------------------------------------------------------------------------+
|           Mach Number|             -|             -|         -|             0|
|       Reynolds Number|             -|             -|         -|       65290.8|
+------------------------------------------------------------------------------+
Initialize Jacobian structure (Navier-Stokes). MG level: 0.
Initialize Jacobian structure (passive scalar model).
Initialize Jacobian structure (SST model).

------------------- Numerics Preprocessing ( Zone 0 ) -------------------

----------------- Integration Preprocessing ( Zone 0 ) ------------------

------------------- Iteration Preprocessing ( Zone 0 ) ------------------
Euler/Navier-Stokes/RANS fluid iteration.

------------------------------ Begin Solver -----------------------------

Simulation Run using the Single-zone Driver
Initializing passive scalar (initial condition).
initialization = 1 1
+----------------------------------------------------------------+
|  Inner_Iter|      rms[P]|      rms[U]|      rms[V]|      rms[c]|
+----------------------------------------------------------------+
|           0|   -5.116953|   -4.847332|   -4.364756|   -5.731215|
|           1|   -5.001558|   -4.855905|   -4.082718|   -5.234285|
|           2|   -5.400264|   -4.614357|   -4.034234|   -5.336097|
|           3|   -5.512073|   -4.793228|   -4.094052|   -5.482267|
|           4|   -5.678936|   -4.874304|   -4.139370|   -5.535851|
|           5|   -5.618769|   -4.915701|   -4.342445|   -5.561363|
|           6|   -5.730846|   -4.874273|   -4.553889|   -5.590108|
|           7|   -5.775226|   -4.817016|   -4.708916|   -5.639124|
|           8|   -5.806874|   -4.777904|   -4.704141|   -5.698301|
|           9|   -5.811349|   -4.757108|   -4.594541|   -5.744851|
|          10|   -5.786368|   -4.743390|   -4.431330|   -5.767450|
|          11|   -5.759970|   -4.730397|   -4.329338|   -5.769296|
|          12|   -5.761369|   -4.717216|   -4.293639|   -5.758316|
|          13|   -5.788350|   -4.703176|   -4.297259|   -5.742831|
|          14|   -5.824967|   -4.686050|   -4.322152|   -5.728858|
|          15|   -5.859448|   -4.664057|   -4.354414|   -5.719097|
|          16|   -5.887611|   -4.637918|   -4.381008|   -5.713462|
|          17|   -5.908626|   -4.610203|   -4.392706|   -5.710490|
|          18|   -5.922854|   -4.583376|   -4.388072|   -5.708445|
|          19|   -5.932070|   -4.558729|   -4.372662|   -5.706021|
|          20|   -5.939072|   -4.536477|   -4.353997|   -5.702540|
|          21|   -5.946431|   -4.516287|   -4.337842|   -5.697890|
|          22|   -5.955485|   -4.497745|   -4.326841|   -5.692312|
|          23|   -5.966261|   -4.480539|   -4.320944|   -5.686200|
|          24|   -5.977999|   -4.464448|   -4.318854|   -5.679929|
|          25|   -5.989807|   -4.449290|   -4.318602|   -5.673763|
|          26|   -6.001078|   -4.434904|   -4.317648|   -5.667817|
|          27|   -6.011524|   -4.421145|   -4.316101|   -5.662091|
|          28|   -6.021136|   -4.407944|   -4.313955|   -5.656546|
|          29|   -6.030025|   -4.395240|   -4.311487|   -5.651129|
|          30|   -6.038349|   -4.382976|   -4.309115|   -5.645807|
|          31|   -6.046231|   -4.371074|   -4.307161|   -5.640564|
|          32|   -6.053768|   -4.359458|   -4.305785|   -5.635388|
|          33|   -6.060908|   -4.348059|   -4.304867|   -5.630264|
|          34|   -6.067613|   -4.336860|   -4.304101|   -5.625187|
|          35|   -6.073857|   -4.325889|   -4.303217|   -5.620184|
|          36|   -6.079612|   -4.315183|   -4.301593|   -5.615306|
|          37|   -6.084921|   -4.304754|   -4.298467|   -5.610613|
|          38|   -6.089877|   -4.294580|   -4.293039|   -5.606154|
|          39|   -6.094574|   -4.284688|   -4.287415|   -5.601942|
|          40|   -6.098934|   -4.275082|   -4.282284|   -5.597947|
|          41|   -6.102886|   -4.265728|   -4.278069|   -5.594109|
|          42|   -6.106455|   -4.256530|   -4.274922|   -5.590411|
|          43|   -6.109762|   -4.247293|   -4.272162|   -5.586879|
|          44|   -6.112887|   -4.237894|   -4.270278|   -5.583607|
|          45|   -6.115725|   -4.228357|   -4.268928|   -5.580642|
|          46|   -6.118269|   -4.218969|   -4.268958|   -5.577938|
|          47|   -6.120451|   -4.210161|   -4.270146|   -5.575420|
|          48|   -6.122314|   -4.202292|   -4.270996|   -5.572997|
|          49|   -6.124079|   -4.195651|   -4.272141|   -5.570629|
|          50|   -6.125747|   -4.190396|   -4.273855|   -5.568287|
|          51|   -6.127188|   -4.186497|   -4.276067|   -5.566017|
|          52|   -6.128485|   -4.183771|   -4.278834|   -5.563877|
|          53|   -6.129590|   -4.181971|   -4.282256|   -5.561937|
|          54|   -6.130466|   -4.180853|   -4.286280|   -5.560176|
|          55|   -6.131007|   -4.180265|   -4.290676|   -5.558457|
|          56|   -6.131154|   -4.180133|   -4.295111|   -5.556551|
|          57|   -6.130961|   -4.180397|   -4.299207|   -5.554206|
|          58|   -6.130534|   -4.180945|   -4.302622|   -5.551243|
|          59|   -6.129499|   -4.181546|   -4.304919|   -5.547611|
|          60|   -6.127407|   -4.181838|   -4.305747|   -5.543352|
|          61|   -6.123994|   -4.181356|   -4.304859|   -5.538534|
|          62|   -6.119227|   -4.179679|   -4.302632|   -5.533206|
|          63|   -6.113113|   -4.176588|   -4.299241|   -5.527425|
|          64|   -6.105764|   -4.172108|   -4.294693|   -5.521254|
|          65|   -6.097312|   -4.166516|   -4.288804|   -5.514734|
|          66|   -6.087696|   -4.160209|   -4.281179|   -5.507867|
|          67|   -6.076758|   -4.153572|   -4.271341|   -5.500601|
|          68|   -6.064302|   -4.146847|   -4.258851|   -5.492811|
|          69|   -6.050053|   -4.139971|   -4.243408|   -5.484332|
|          70|   -6.033873|   -4.132719|   -4.225074|   -5.474982|
|          71|   -6.015680|   -4.124979|   -4.204109|   -5.464728|
|          72|   -5.996453|   -4.117106|   -4.181007|   -5.453808|
|          73|   -5.975597|   -4.109001|   -4.156477|   -5.443206|
|          74|   -5.954171|   -4.101078|   -4.132411|   -5.434523|
|          75|   -5.934928|   -4.093401|   -4.111758|   -5.429311|
|          76|   -5.920774|   -4.085748|   -4.097253|   -5.428380|
|          77|   -5.913112|   -4.077905|   -4.090517|   -5.431382|
|          78|   -5.911218|   -4.070366|   -4.092721|   -5.436966|
|          79|   -5.913640|   -4.064019|   -4.101341|   -5.443626|
|          80|   -5.919734|   -4.059576|   -4.111464|   -5.450423|
|          81|   -5.927406|   -4.056660|   -4.121739|   -5.457183|
|          82|   -5.935785|   -4.054426|   -4.132129|   -5.463744|
|          83|   -5.943894|   -4.051628|   -4.142788|   -5.469681|
|          84|   -5.949659|   -4.047532|   -4.152595|   -5.474604|
|          85|   -5.951658|   -4.042326|   -4.160330|   -5.477765|
|          86|   -5.948758|   -4.035173|   -4.165641|   -5.478365|
|          87|   -5.941121|   -4.025835|   -4.167907|   -5.475792|
|          88|   -5.929084|   -4.015649|   -4.164961|   -5.469918|
|          89|   -5.914340|   -4.004848|   -4.153192|   -5.461037|
|          90|   -5.898027|   -3.993726|   -4.131422|   -5.449461|
|          91|   -5.877490|   -3.983233|   -4.102200|   -5.436659|
|          92|   -5.854127|   -3.974260|   -4.071382|   -5.424307|
|          93|   -5.829859|   -3.967292|   -4.044350|   -5.414345|
|          94|   -5.808389|   -3.962278|   -4.024410|   -5.407817|
|          95|   -5.793621|   -3.959073|   -4.012857|   -5.404691|
|          96|   -5.785431|   -3.957190|   -4.008472|   -5.404681|
|          97|   -5.782392|   -3.956036|   -4.008682|   -5.407308|
|          98|   -5.783779|   -3.955062|   -4.011496|   -5.411964|
|          99|   -5.789201|   -3.954486|   -4.016317|   -5.418215|
|         100|   -5.798494|   -3.954547|   -4.022785|   -5.425398|
|         101|   -5.810369|   -3.955219|   -4.031476|   -5.433084|
|         102|   -5.824710|   -3.957024|   -4.042433|   -5.440567|
|         103|   -5.840729|   -3.960696|   -4.055007|   -5.447620|
|         104|   -5.857229|   -3.965752|   -4.068136|   -5.454172|
|         105|   -5.873258|   -3.971512|   -4.081405|   -5.459771|
|         106|   -5.888999|   -3.978023|   -4.094684|   -5.463754|
|         107|   -5.903257|   -3.985221|   -4.106619|   -5.465440|
|         108|   -5.915474|   -3.993188|   -4.115060|   -5.464291|
|         109|   -5.923712|   -4.001359|   -4.119401|   -5.460432|
|         110|   -5.926648|   -4.009175|   -4.120548|   -5.454381|
|         111|   -5.922434|   -4.016077|   -4.119798|   -5.447011|
|         112|   -5.910857|   -4.021821|   -4.117719|   -5.440138|
|         113|   -5.901481|   -4.025963|   -4.114916|   -5.433547|
|         114|   -5.891293|   -4.028030|   -4.112743|   -5.427625|
|         115|   -5.880745|   -4.028938|   -4.111322|   -5.422663|
|         116|   -5.871701|   -4.029377|   -4.111436|   -5.418858|
|         117|   -5.863710|   -4.029803|   -4.113168|   -5.416451|
|         118|   -5.857348|   -4.030570|   -4.116343|   -5.415647|
|         119|   -5.853119|   -4.032399|   -4.120811|   -5.416606|
|         120|   -5.851141|   -4.035420|   -4.126052|   -5.419259|
|         121|   -5.851192|   -4.039693|   -4.131493|   -5.423546|
|         122|   -5.852905|   -4.045207|   -4.136098|   -5.429397|
|         123|   -5.856615|   -4.051765|   -4.139048|   -5.436463|
|         124|   -5.861227|   -4.059297|   -4.139897|   -5.444335|
|         125|   -5.866202|   -4.067378|   -4.138901|   -5.452541|
|         126|   -5.871532|   -4.075631|   -4.136296|   -5.460873|
|         127|   -5.876370|   -4.083637|   -4.132498|   -5.469194|
|         128|   -5.880905|   -4.091024|   -4.127711|   -5.477189|
|         129|   -5.885076|   -4.097577|   -4.122610|   -5.484728|
|         130|   -5.888375|   -4.103367|   -4.116823|   -5.491931|
|         131|   -5.894033|   -4.107859|   -4.110624|   -5.498379|
|         132|   -5.901833|   -4.111472|   -4.105266|   -5.503683|
|         133|   -5.909413|   -4.114710|   -4.101214|   -5.508036|
|         134|   -5.915914|   -4.117567|   -4.098506|   -5.511610|
|         135|   -5.921617|   -4.120259|   -4.097134|   -5.514583|
|         136|   -5.926529|   -4.122798|   -4.096922|   -5.517073|
|         137|   -5.930945|   -4.125162|   -4.097684|   -5.519321|
|         138|   -5.934675|   -4.127270|   -4.099197|   -5.521337|
|         139|   -5.938332|   -4.129024|   -4.101165|   -5.523244|
|         140|   -5.941722|   -4.130518|   -4.103274|   -5.524870|
|         141|   -5.944981|   -4.131906|   -4.105355|   -5.526215|
|         142|   -5.947730|   -4.133188|   -4.107133|   -5.527243|
|         143|   -5.949476|   -4.134273|   -4.108805|   -5.528059|
|         144|   -5.950765|   -4.135243|   -4.110436|   -5.528736|
|         145|   -5.951468|   -4.136026|   -4.111730|   -5.529226|
|         146|   -5.952052|   -4.137063|   -4.112435|   -5.529599|
|         147|   -5.952892|   -4.138350|   -4.112658|   -5.529864|
|         148|   -5.953796|   -4.139621|   -4.112438|   -5.530043|
|         149|   -5.954624|   -4.141025|   -4.111814|   -5.530253|
|         150|   -5.956274|   -4.142602|   -4.110855|   -5.530618|
|         151|   -5.958673|   -4.144422|   -4.109791|   -5.531148|
|         152|   -5.961371|   -4.146576|   -4.109033|   -5.531758|
|         153|   -5.964901|   -4.148901|   -4.108640|   -5.532202|
|         154|   -5.968862|   -4.151155|   -4.108041|   -5.532447|
|         155|   -5.972952|   -4.153334|   -4.107303|   -5.532379|
|         156|   -5.976854|   -4.155630|   -4.106771|   -5.532108|
|         157|   -5.980043|   -4.157977|   -4.106451|   -5.531647|
|         158|   -5.982150|   -4.160197|   -4.106327|   -5.531045|
|         159|   -5.983743|   -4.162129|   -4.106416|   -5.530296|
|         160|   -5.985497|   -4.164023|   -4.106721|   -5.529412|
|         161|   -5.987117|   -4.166022|   -4.107255|   -5.528278|
|         162|   -5.988902|   -4.167801|   -4.107981|   -5.526981|
|         163|   -5.990379|   -4.169331|   -4.108790|   -5.525538|
|         164|   -5.991164|   -4.170510|   -4.109608|   -5.523950|
|         165|   -5.992038|   -4.171367|   -4.110302|   -5.522193|
|         166|   -5.992682|   -4.171902|   -4.110778|   -5.520194|
|         167|   -5.992771|   -4.171905|   -4.110948|   -5.517914|
|         168|   -5.992617|   -4.171504|   -4.110740|   -5.515359|
|         169|   -5.991884|   -4.170460|   -4.110071|   -5.512557|
|         170|   -5.990712|   -4.168687|   -4.108648|   -5.509629|
|         171|   -5.989177|   -4.166014|   -4.106463|   -5.506629|
|         172|   -5.987368|   -4.162708|   -4.103857|   -5.503624|
|         173|   -5.985358|   -4.158968|   -4.100993|   -5.500627|
|         174|   -5.983946|   -4.154922|   -4.098069|   -5.497624|
|         175|   -5.983078|   -4.150968|   -4.095187|   -5.494586|
|         176|   -5.982582|   -4.146927|   -4.092287|   -5.491491|
|         177|   -5.982379|   -4.142468|   -4.089469|   -5.488387|
|         178|   -5.981985|   -4.137618|   -4.086605|   -5.485287|
|         179|   -5.981983|   -4.132437|   -4.083659|   -5.482251|
|         180|   -5.982388|   -4.126842|   -4.080668|   -5.479297|
|         181|   -5.983381|   -4.121042|   -4.077643|   -5.476421|
|         182|   -5.984420|   -4.115345|   -4.074505|   -5.473578|
|         183|   -5.985890|   -4.109797|   -4.070963|   -5.470748|
|         184|   -5.987523|   -4.104216|   -4.067078|   -5.467907|
|         185|   -5.989389|   -4.098734|   -4.062891|   -5.465081|
|         186|   -5.991183|   -4.093640|   -4.058459|   -5.462348|
|         187|   -5.993118|   -4.088899|   -4.053740|   -5.459766|
|         188|   -5.995041|   -4.084333|   -4.048880|   -5.457309|
|         189|   -5.997165|   -4.080073|   -4.043966|   -5.454971|
|         190|   -5.999587|   -4.076381|   -4.039159|   -5.452688|
|         191|   -6.002433|   -4.073204|   -4.034562|   -5.450457|
|         192|   -6.005405|   -4.070500|   -4.030306|   -5.448279|
|         193|   -6.008464|   -4.068134|   -4.026464|   -5.446186|
|         194|   -6.011372|   -4.065970|   -4.023021|   -5.444200|
|         195|   -6.014368|   -4.064013|   -4.019937|   -5.442351|
|         196|   -6.017079|   -4.062147|   -4.017238|   -5.440661|
|         197|   -6.019663|   -4.060406|   -4.014979|   -5.439138|
|         198|   -6.022033|   -4.058890|   -4.013254|   -5.437785|
|         199|   -6.024451|   -4.057556|   -4.011993|   -5.436589|
|         200|   -6.026647|   -4.056315|   -4.011092|   -5.435538|
|         201|   -6.029007|   -4.055196|   -4.010432|   -5.434644|
|         202|   -6.031271|   -4.054233|   -4.009900|   -5.433942|
|         203|   -6.033554|   -4.053388|   -4.009402|   -5.433459|
|         204|   -6.035720|   -4.052534|   -4.008957|   -5.433191|
|         205|   -6.037845|   -4.051684|   -4.008694|   -5.433137|
|         206|   -6.040199|   -4.051003|   -4.008699|   -5.433292|
|         207|   -6.042686|   -4.050482|   -4.008897|   -5.433634|
|         208|   -6.045183|   -4.050095|   -4.009178|   -5.434179|
|         209|   -6.047777|   -4.049887|   -4.009480|   -5.434911|
|         210|   -6.050283|   -4.049713|   -4.009753|   -5.435827|
|         211|   -6.052797|   -4.049506|   -4.009938|   -5.436916|
|         212|   -6.055285|   -4.049144|   -4.010117|   -5.438201|
|         213|   -6.058086|   -4.048693|   -4.010380|   -5.439684|
|         214|   -6.060986|   -4.048107|   -4.010854|   -5.441378|
|         215|   -6.064073|   -4.047348|   -4.011495|   -5.443275|
|         216|   -6.067158|   -4.046406|   -4.012319|   -5.445371|
|         217|   -6.070682|   -4.045369|   -4.013287|   -5.447624|
|         218|   -6.075060|   -4.044266|   -4.014379|   -5.450016|
|         219|   -6.079928|   -4.043084|   -4.015584|   -5.452548|
|         220|   -6.085362|   -4.041830|   -4.016880|   -5.455232|
|         221|   -6.091199|   -4.040497|   -4.018240|   -5.458044|
|         222|   -6.097523|   -4.038923|   -4.019632|   -5.460965|
|         223|   -6.104206|   -4.037120|   -4.021178|   -5.463991|
|         224|   -6.111239|   -4.035166|   -4.023005|   -5.467114|
|         225|   -6.118516|   -4.033191|   -4.025157|   -5.470333|
|         226|   -6.126205|   -4.031209|   -4.027630|   -5.473634|
|         227|   -6.134136|   -4.029211|   -4.030470|   -5.477020|
|         228|   -6.142089|   -4.027171|   -4.033712|   -5.480491|
|         229|   -6.149997|   -4.025103|   -4.037350|   -5.484050|
|         230|   -6.157957|   -4.023034|   -4.041338|   -5.487692|
|         231|   -6.165975|   -4.020988|   -4.045643|   -5.491417|
|         232|   -6.174001|   -4.019028|   -4.050204|   -5.495224|
|         233|   -6.182134|   -4.017099|   -4.055043|   -5.499109|
|         234|   -6.190278|   -4.015223|   -4.060125|   -5.503073|
|         235|   -6.199023|   -4.013429|   -4.065413|   -5.507114|
|         236|   -6.207881|   -4.011769|   -4.070884|   -5.511201|
|         237|   -6.216955|   -4.010267|   -4.076483|   -5.515341|
|         238|   -6.226803|   -4.008980|   -4.082160|   -5.519534|
|         239|   -6.236840|   -4.007865|   -4.087900|   -5.523757|
|         240|   -6.246782|   -4.006848|   -4.093586|   -5.528004|
|         241|   -6.256955|   -4.005924|   -4.099154|   -5.532286|
|         242|   -6.267093|   -4.005060|   -4.104612|   -5.536594|
|         243|   -6.276843|   -4.004200|   -4.109873|   -5.540911|
|         244|   -6.286044|   -4.003325|   -4.114898|   -5.545246|
|         245|   -6.294725|   -4.002451|   -4.119638|   -5.549588|
|         246|   -6.302823|   -4.001583|   -4.124050|   -5.553918|
|         247|   -6.309873|   -4.000722|   -4.128137|   -5.558234|
|         248|   -6.315988|   -3.999855|   -4.131845|   -5.562532|
|         249|   -6.321172|   -3.998963|   -4.134963|   -5.566812|
|         250|   -6.325805|   -3.998040|   -4.137638|   -5.571060|
|         251|   -6.329819|   -3.997117|   -4.139977|   -5.575272|
|         252|   -6.333142|   -3.996184|   -4.141988|   -5.579459|
|         253|   -6.336017|   -3.995204|   -4.143646|   -5.583637|
|         254|   -6.338599|   -3.994144|   -4.144995|   -5.587792|
|         255|   -6.340906|   -3.993088|   -4.146132|   -5.591943|
|         256|   -6.343739|   -3.991979|   -4.147147|   -5.596101|
|         257|   -6.346360|   -3.990922|   -4.148108|   -5.600218|
|         258|   -6.349628|   -3.989788|   -4.149091|   -5.604353|
|         259|   -6.352770|   -3.988704|   -4.150164|   -5.608426|
|         260|   -6.356705|   -3.987605|   -4.151444|   -5.612495|
|         261|   -6.360519|   -3.986526|   -4.152987|   -5.616479|
|         262|   -6.364783|   -3.985394|   -4.154825|   -5.620435|
|         263|   -6.368697|   -3.984179|   -4.156922|   -5.624294|
|         264|   -6.372623|   -3.982849|   -4.159208|   -5.628104|
|         265|   -6.375690|   -3.981397|   -4.161613|   -5.631801|
|         266|   -6.378552|   -3.979826|   -4.164008|   -5.635437|
|         267|   -6.380372|   -3.978219|   -4.166251|   -5.638932|
|         268|   -6.381618|   -3.976598|   -4.168272|   -5.642359|
|         269|   -6.382023|   -3.975082|   -4.169867|   -5.645637|
|         270|   -6.381434|   -3.973630|   -4.170913|   -5.648825|
|         271|   -6.380552|   -3.972345|   -4.171326|   -5.651893|
|         272|   -6.379154|   -3.971178|   -4.171286|   -5.654843|
|         273|   -6.376616|   -3.970231|   -4.170744|   -5.657654|
|         274|   -6.374325|   -3.969372|   -4.169902|   -5.660429|
|         275|   -6.371359|   -3.968669|   -4.168730|   -5.663047|
|         276|   -6.368700|   -3.968058|   -4.167298|   -5.665690|
|         277|   -6.366288|   -3.967683|   -4.165654|   -5.668248|
|         278|   -6.365044|   -3.967603|   -4.163820|   -5.670832|
|         279|   -6.363987|   -3.967851|   -4.161942|   -5.673353|
|         280|   -6.364439|   -3.968411|   -4.160151|   -5.675938|
|         281|   -6.365223|   -3.969280|   -4.158595|   -5.678456|
|         282|   -6.367034|   -3.970336|   -4.157494|   -5.681040|
|         283|   -6.369028|   -3.971614|   -4.156922|   -5.683634|
|         284|   -6.370980|   -3.973069|   -4.157021|   -5.686246|
|         285|   -6.373020|   -3.974690|   -4.157831|   -5.688954|
|         286|   -6.374773|   -3.976440|   -4.159313|   -5.691731|
|         287|   -6.375914|   -3.978273|   -4.161490|   -5.694565|
|         288|   -6.376288|   -3.980152|   -4.164350|   -5.697505|
|         289|   -6.375952|   -3.982053|   -4.167838|   -5.700541|
|         290|   -6.374569|   -3.983921|   -4.171861|   -5.703660|
|         291|   -6.372084|   -3.985681|   -4.176228|   -5.706844|
|         292|   -6.368584|   -3.987250|   -4.180618|   -5.710060|
|         293|   -6.364055|   -3.988539|   -4.184615|   -5.713274|
|         294|   -6.358436|   -3.989477|   -4.187788|   -5.716416|
|         295|   -6.352003|   -3.989994|   -4.189767|   -5.719469|
|         296|   -6.344850|   -3.990078|   -4.190156|   -5.722383|
|         297|   -6.336837|   -3.989732|   -4.188639|   -5.725070|
|         298|   -6.328119|   -3.989001|   -4.185165|   -5.727502|
|         299|   -6.319351|   -3.988012|   -4.179806|   -5.729676|
|         300|   -6.310518|   -3.986918|   -4.172753|   -5.731535|
|         301|   -6.301394|   -3.985826|   -4.164293|   -5.733060|
|         302|   -6.292116|   -3.984871|   -4.154697|   -5.734271|
|         303|   -6.282835|   -3.984242|   -4.144253|   -5.735190|
|         304|   -6.273972|   -3.984076|   -4.133332|   -5.735854|
|         305|   -6.265475|   -3.984404|   -4.122300|   -5.736287|
|         306|   -6.257300|   -3.985275|   -4.111462|   -5.736513|
|         307|   -6.249343|   -3.986758|   -4.101224|   -5.736554|
|         308|   -6.241410|   -3.988901|   -4.092090|   -5.736434|
|         309|   -6.233413|   -3.991710|   -4.084257|   -5.736200|
|         310|   -6.225400|   -3.995147|   -4.077844|   -5.735906|
|         311|   -6.217273|   -3.999154|   -4.072890|   -5.735545|
|         312|   -6.208916|   -4.003638|   -4.069356|   -5.735124|
|         313|   -6.200239|   -4.008499|   -4.067116|   -5.734704|
|         314|   -6.191343|   -4.013710|   -4.066006|   -5.734276|
|         315|   -6.181899|   -4.019268|   -4.065898|   -5.733932|
|         316|   -6.171997|   -4.025232|   -4.066734|   -5.733766|
|         317|   -6.161607|   -4.031616|   -4.068567|   -5.733944|
|         318|   -6.150991|   -4.038491|   -4.071571|   -5.734611|
|         319|   -6.140305|   -4.045867|   -4.075745|   -5.735934|
|         320|   -6.130059|   -4.053754|   -4.080928|   -5.738068|
|         321|   -6.120408|   -4.062102|   -4.087041|   -5.741045|
|         322|   -6.112861|   -4.070831|   -4.092555|   -5.745192|
|         323|   -6.108190|   -4.079927|   -4.098052|   -5.749994|
|         324|   -6.104330|   -4.089083|   -4.103901|   -5.755350|
|         325|   -6.100342|   -4.098015|   -4.110029|   -5.761203|
|         326|   -6.096024|   -4.106551|   -4.116285|   -5.767489|
|         327|   -6.091419|   -4.114537|   -4.122544|   -5.774116|
|         328|   -6.086693|   -4.121853|   -4.128650|   -5.780961|
|         329|   -6.082042|   -4.128476|   -4.134407|   -5.787901|
|         330|   -6.077452|   -4.134381|   -4.139581|   -5.794821|
|         331|   -6.072759|   -4.139616|   -4.143955|   -5.801622|
|         332|   -6.067925|   -4.144275|   -4.147406|   -5.808235|
|         333|   -6.062904|   -4.148505|   -4.149901|   -5.814606|
|         334|   -6.057741|   -4.152507|   -4.151504|   -5.820726|
|         335|   -6.052538|   -4.156451|   -4.152388|   -5.826603|
|         336|   -6.047401|   -4.160528|   -4.152762|   -5.832265|
|         337|   -6.042441|   -4.164845|   -4.152844|   -5.837729|
|         338|   -6.037710|   -4.169494|   -4.152811|   -5.843033|
|         339|   -6.033242|   -4.174558|   -4.152842|   -5.848226|
|         340|   -6.029126|   -4.180099|   -4.153129|   -5.853367|
|         341|   -6.025450|   -4.186153|   -4.153850|   -5.858450|
|         342|   -6.022258|   -4.192734|   -4.155126|   -5.863459|
|         343|   -6.019528|   -4.199762|   -4.157032|   -5.868347|
|         344|   -6.017232|   -4.207168|   -4.159602|   -5.873028|
|         345|   -6.015243|   -4.214838|   -4.162807|   -5.877383|
|         346|   -6.013418|   -4.222570|   -4.166553|   -5.881288|
|         347|   -6.011649|   -4.230168|   -4.170648|   -5.884615|
|         348|   -6.009874|   -4.237498|   -4.173507|   -5.887221|
|         349|   -6.008175|   -4.244397|   -4.174162|   -5.888284|
|         350|   -6.006674|   -4.250730|   -4.174283|   -5.887533|
|         351|   -6.005273|   -4.256469|   -4.174126|   -5.885245|
|         352|   -6.003800|   -4.261565|   -4.173772|   -5.882554|
|         353|   -6.002157|   -4.266001|   -4.173263|   -5.879683|
|         354|   -6.000340|   -4.269843|   -4.172656|   -5.876296|
|         355|   -5.998410|   -4.273158|   -4.171961|   -5.872412|
|         356|   -5.996435|   -4.275975|   -4.171189|   -5.868128|
|         357|   -5.994497|   -4.278407|   -4.170313|   -5.863573|
|         358|   -5.992655|   -4.280649|   -4.169390|   -5.858927|
|         359|   -5.990943|   -4.282823|   -4.168513|   -5.854324|
|         360|   -5.989348|   -4.284980|   -4.167764|   -5.849824|
|         361|   -5.987854|   -4.287118|   -4.167184|   -5.845524|
|         362|   -5.986434|   -4.289183|   -4.166757|   -5.841486|
|         363|   -5.985068|   -4.291066|   -4.166468|   -5.837744|
|         364|   -5.983743|   -4.292687|   -4.166274|   -5.834332|
|         365|   -5.982458|   -4.294053|   -4.166136|   -5.831254|
|         366|   -5.981189|   -4.295196|   -4.166002|   -5.828524|
|         367|   -5.979989|   -4.296138|   -4.165914|   -5.826094|
|         368|   -5.978839|   -4.296890|   -4.165837|   -5.823945|
|         369|   -5.977700|   -4.297463|   -4.165724|   -5.822087|
|         370|   -5.976473|   -4.297898|   -4.165388|   -5.820550|
|         371|   -5.975381|   -4.298260|   -4.165154|   -5.819396|
|         372|   -5.974465|   -4.298594|   -4.165065|   -5.818750|
|         373|   -5.973656|   -4.298947|   -4.164935|   -5.818657|
|         374|   -5.973101|   -4.299380|   -4.164909|   -5.819215|
|         375|   -5.972849|   -4.299940|   -4.165037|   -5.820358|
|         376|   -5.972970|   -4.300700|   -4.165429|   -5.822108|
|         377|   -5.973420|   -4.301620|   -4.166059|   -5.824347|
|         378|   -5.974221|   -4.302639|   -4.167016|   -5.826930|
|         379|   -5.975307|   -4.303655|   -4.168266|   -5.829762|
|         380|   -5.976665|   -4.304554|   -4.169859|   -5.832714|
|         381|   -5.978278|   -4.305236|   -4.171831|   -5.835704|
|         382|   -5.980116|   -4.305615|   -4.174188|   -5.838638|
|         383|   -5.982082|   -4.305609|   -4.176783|   -5.841432|
|         384|   -5.984244|   -4.305159|   -4.179731|   -5.844030|
|         385|   -5.986521|   -4.304209|   -4.182883|   -5.846451|
|         386|   -5.988911|   -4.302728|   -4.186228|   -5.848697|
|         387|   -5.991376|   -4.300772|   -4.189651|   -5.850734|
|         388|   -5.993900|   -4.298386|   -4.193068|   -5.852521|
|         389|   -5.996556|   -4.295614|   -4.196497|   -5.854006|
|         390|   -5.999312|   -4.292526|   -4.199848|   -5.855147|
|         391|   -6.002285|   -4.289235|   -4.203382|   -5.855844|
|         392|   -6.005286|   -4.285780|   -4.206816|   -5.856058|
|         393|   -6.008341|   -4.282278|   -4.210227|   -5.855714|
|         394|   -6.011430|   -4.278839|   -4.213642|   -5.854794|
|         395|   -6.014502|   -4.275639|   -4.217034|   -5.853272|
|         396|   -6.017519|   -4.272797|   -4.220327|   -5.851161|
|         397|   -6.020475|   -4.270382|   -4.223444|   -5.848545|
|         398|   -6.023381|   -4.268485|   -4.225734|   -5.845606|
|         399|   -6.026336|   -4.266961|   -4.223498|   -5.842633|
|         400|   -6.029412|   -4.265685|   -4.220923|   -5.839637|
|         401|   -6.032537|   -4.264148|   -4.218485|   -5.836694|
|         402|   -6.035641|   -4.262191|   -4.216476|   -5.833821|
|         403|   -6.038708|   -4.259707|   -4.214966|   -5.830979|
|         404|   -6.041710|   -4.256923|   -4.214453|   -5.828130|
|         405|   -6.044642|   -4.254079|   -4.214345|   -5.825238|
|         406|   -6.047511|   -4.251451|   -4.214713|   -5.822289|
|         407|   -6.050294|   -4.248939|   -4.215294|   -5.819276|
|         408|   -6.052949|   -4.246609|   -4.216729|   -5.816208|
|         409|   -6.055619|   -4.244562|   -4.218751|   -5.813042|
|         410|   -6.058318|   -4.242955|   -4.222179|   -5.809786|
|         411|   -6.061127|   -4.241645|   -4.226246|   -5.806418|
|         412|   -6.064172|   -4.240549|   -4.231210|   -5.802924|
|         413|   -6.067410|   -4.239370|   -4.236692|   -5.799266|
|         414|   -6.070912|   -4.237842|   -4.242522|   -5.795298|
|         415|   -6.074276|   -4.235858|   -4.248497|   -5.791140|
|         416|   -6.077442|   -4.233373|   -4.254369|   -5.786784|
|         417|   -6.080517|   -4.230408|   -4.259979|   -5.782142|
|         418|   -6.083230|   -4.227028|   -4.265191|   -5.777106|
|         419|   -6.085808|   -4.223143|   -4.269473|   -5.771694|
|         420|   -6.088009|   -4.218646|   -4.272618|   -5.766027|
|         421|   -6.090238|   -4.213708|   -4.275574|   -5.760070|
|         422|   -6.092046|   -4.208381|   -4.278387|   -5.753890|
|         423|   -6.093485|   -4.202655|   -4.280903|   -5.747587|
|         424|   -6.094326|   -4.196531|   -4.282805|   -5.741275|
|         425|   -6.094730|   -4.189904|   -4.283476|   -5.735113|
|         426|   -6.094869|   -4.182916|   -4.283586|   -5.729233|
|         427|   -6.094763|   -4.175662|   -4.283265|   -5.723751|
|         428|   -6.094569|   -4.168249|   -4.282492|   -5.718727|
|         429|   -6.094173|   -4.160736|   -4.281227|   -5.714244|
|         430|   -6.093663|   -4.153200|   -4.279497|   -5.710298|
|         431|   -6.093058|   -4.145735|   -4.277307|   -5.706792|
|         432|   -6.092644|   -4.138411|   -4.274639|   -5.703697|
|         433|   -6.092451|   -4.131343|   -4.271416|   -5.700837|
|         434|   -6.092210|   -4.124521|   -4.267580|   -5.698065|
|         435|   -6.092035|   -4.117941|   -4.262828|   -5.695385|
|         436|   -6.092237|   -4.111747|   -4.257352|   -5.692713|
|         437|   -6.092734|   -4.105972|   -4.251091|   -5.690071|
|         438|   -6.093926|   -4.100682|   -4.244433|   -5.687340|
|         439|   -6.095128|   -4.095890|   -4.237688|   -5.684613|
|         440|   -6.096179|   -4.091527|   -4.230742|   -5.681914|
|         441|   -6.096889|   -4.087520|   -4.223545|   -5.679552|
|         442|   -6.098006|   -4.083844|   -4.215938|   -5.677457|
|         443|   -6.099758|   -4.080525|   -4.208196|   -5.675687|
|         444|   -6.101693|   -4.077648|   -4.200725|   -5.674365|
|         445|   -6.103797|   -4.075177|   -4.193733|   -5.673541|
|         446|   -6.106288|   -4.073017|   -4.187230|   -5.673203|
|         447|   -6.109098|   -4.071041|   -4.181156|   -5.673290|
|         448|   -6.112107|   -4.069051|   -4.175497|   -5.673802|
|         449|   -6.115443|   -4.066973|   -4.169816|   -5.674864|
|         450|   -6.119844|   -4.064834|   -4.164542|   -5.676200|
|         451|   -6.123910|   -4.062685|   -4.159970|   -5.677773|
|         452|   -6.127247|   -4.060444|   -4.156164|   -5.679552|
|         453|   -6.129915|   -4.058165|   -4.153131|   -5.681621|
|         454|   -6.132713|   -4.056133|   -4.151297|   -5.683905|
|         455|   -6.135674|   -4.054665|   -4.151764|   -5.686412|
|         456|   -6.140690|   -4.054093|   -4.155554|   -5.689164|
|         457|   -6.149872|   -4.054276|   -4.162335|   -5.692069|
|         458|   -6.162508|   -4.056251|   -4.172767|   -5.694832|
|         459|   -6.178594|   -4.060360|   -4.186412|   -5.697353|
|         460|   -6.197289|   -4.065384|   -4.201059|   -5.699579|
|         461|   -6.214758|   -4.069725|   -4.214563|   -5.701479|
|         462|   -6.228212|   -4.073072|   -4.226299|   -5.703044|
|         463|   -6.238944|   -4.075562|   -4.236015|   -5.704340|
|         464|   -6.248412|   -4.077394|   -4.243742|   -5.705279|
|         465|   -6.256524|   -4.078819|   -4.250141|   -5.705857|
|         466|   -6.263216|   -4.080029|   -4.255872|   -5.706099|
|         467|   -6.269122|   -4.081149|   -4.261370|   -5.706036|
|         468|   -6.274883|   -4.082341|   -4.267103|   -5.705611|
|         469|   -6.280353|   -4.083603|   -4.273224|   -5.704818|
|         470|   -6.285440|   -4.084917|   -4.279464|   -5.703667|
|         471|   -6.289907|   -4.086219|   -4.285456|   -5.702180|
|         472|   -6.293515|   -4.087438|   -4.290775|   -5.700377|
|         473|   -6.296021|   -4.088495|   -4.295089|   -5.698294|
|         474|   -6.297126|   -4.089292|   -4.298324|   -5.695952|
|         475|   -6.296727|   -4.089733|   -4.300339|   -5.693401|
|         476|   -6.295304|   -4.089701|   -4.300984|   -5.690707|
|         477|   -6.293031|   -4.089199|   -4.300546|   -5.687788|
|         478|   -6.289302|   -4.088174|   -4.299022|   -5.684643|
|         479|   -6.284597|   -4.086646|   -4.296294|   -5.681364|
|         480|   -6.279382|   -4.084937|   -4.292781|   -5.677980|
|         481|   -6.273551|   -4.083664|   -4.288231|   -5.674612|
|         482|   -6.267374|   -4.083236|   -4.281487|   -5.671405|
|         483|   -6.258644|   -4.083128|   -4.274819|   -5.668456|
|         484|   -6.250701|   -4.082655|   -4.271981|   -5.665940|
|         485|   -6.243554|   -4.082310|   -4.271496|   -5.664026|
|         486|   -6.239583|   -4.083437|   -4.272232|   -5.662584|
|         487|   -6.238196|   -4.086791|   -4.273910|   -5.661606|
|         488|   -6.235935|   -4.091172|   -4.276235|   -5.661053|
|         489|   -6.234636|   -4.095223|   -4.278384|   -5.660723|
|         490|   -6.232465|   -4.099187|   -4.280044|   -5.660443|
|         491|   -6.228507|   -4.103504|   -4.281007|   -5.660130|
|         492|   -6.222727|   -4.107942|   -4.280558|   -5.659896|
|         493|   -6.215109|   -4.112024|   -4.278858|   -5.659968|
|         494|   -6.207083|   -4.115418|   -4.275843|   -5.660470|
|         495|   -6.199828|   -4.118499|   -4.271833|   -5.661269|
|         496|   -6.193430|   -4.121617|   -4.267624|   -5.662067|
|         497|   -6.187423|   -4.124891|   -4.263720|   -5.662623|
|         498|   -6.182048|   -4.127987|   -4.257762|   -5.662966|
|         499|   -6.178661|   -4.130728|   -4.251193|   -5.662988|
|         500|   -6.176440|   -4.132669|   -4.244741|   -5.662899|
+-----------------------------------------------------------------------+
|        File Writing Summary       |              Filename             |
+-----------------------------------------------------------------------+
|SU2 restart                        |restart_venturi_mixturedensity_30kW_fine_test.dat|
|                                   |                     (458.358 MB/s)|
|Paraview                           |flow_venturi_mixturedensity_30kW_fine_test_00000500.vtu|
|                                   |                     (6.70261 MB/s)|
|Paraview surface                   |surface_flow_venturi_mixturedensity_30kW_fine_test.vtu|
|                                   |                     (1.79165 MB/s)|
+-----------------------------------------------------------------------+
+----------------------------------------------------------------+
|  Inner_Iter|      rms[P]|      rms[U]|      rms[V]|      rms[c]|
+----------------------------------------------------------------+
|         501|   -6.173938|   -4.133829|   -4.238218|   -5.662858|
|         502|   -6.171215|   -4.134474|   -4.231558|   -5.662919|
|         503|   -6.168883|   -4.134898|   -4.224734|   -5.663085|
|         504|   -6.167183|   -4.135420|   -4.218417|   -5.663325|
|         505|   -6.165984|   -4.136289|   -4.212831|   -5.663620|
|         506|   -6.164931|   -4.137709|   -4.207713|   -5.663953|
|         507|   -6.163787|   -4.139767|   -4.202757|   -5.664305|
|         508|   -6.162549|   -4.142467|   -4.197736|   -5.664656|
|         509|   -6.161316|   -4.145729|   -4.192503|   -5.664987|
|         510|   -6.160191|   -4.149416|   -4.187057|   -5.665286|
|         511|   -6.159253|   -4.153368|   -4.181506|   -5.665552|
|         512|   -6.158519|   -4.157364|   -4.176005|   -5.665792|
|         513|   -6.157954|   -4.161177|   -4.170702|   -5.666021|
|         514|   -6.157496|   -4.164587|   -4.165714|   -5.666251|
|         515|   -6.157004|   -4.167396|   -4.161112|   -5.666494|
|         516|   -6.156294|   -4.169484|   -4.156946|   -5.666760|
|         517|   -6.155174|   -4.170803|   -4.153269|   -5.667060|
|         518|   -6.153476|   -4.171371|   -4.150146|   -5.667405|
|         519|   -6.151115|   -4.171281|   -4.147637|   -5.667803|
|         520|   -6.148054|   -4.170707|   -4.145803|   -5.668262|
|         521|   -6.144380|   -4.169838|   -4.144628|   -5.668786|
|         522|   -6.140340|   -4.168818|   -4.144032|   -5.669375|
|         523|   -6.136196|   -4.167740|   -4.143885|   -5.670031|
|         524|   -6.132347|   -4.166591|   -4.144064|   -5.670752|
|         525|   -6.129317|   -4.165490|   -4.144404|   -5.671544|
|         526|   -6.127597|   -4.165124|   -4.144708|   -5.672396|
|         527|   -6.127371|   -4.166643|   -4.144863|   -5.673299|
|         528|   -6.128472|   -4.171208|   -4.144726|   -5.674260|
|         529|   -6.130173|   -4.178345|   -4.144507|   -5.675273|
|         530|   -6.131805|   -4.186819|   -4.144842|   -5.676342|
|         531|   -6.133065|   -4.195888|   -4.145921|   -5.677459|
|         532|   -6.133888|   -4.204700|   -4.147549|   -5.678611|
|         533|   -6.134332|   -4.212405|   -4.149551|   -5.679789|
|         534|   -6.134519|   -4.218645|   -4.151685|   -5.680987|
|         535|   -6.134564|   -4.223661|   -4.153658|   -5.682202|
|         536|   -6.134560|   -4.227900|   -4.155251|   -5.683425|
|         537|   -6.134574|   -4.231685|   -4.156394|   -5.684648|
|         538|   -6.134636|   -4.235185|   -4.157125|   -5.685861|
|         539|   -6.134758|   -4.238465|   -4.157542|   -5.687055|
|         540|   -6.134939|   -4.241589|   -4.157733|   -5.688220|
|         541|   -6.135184|   -4.244562|   -4.157755|   -5.689352|
|         542|   -6.135499|   -4.247353|   -4.157701|   -5.690447|
|         543|   -6.135896|   -4.249927|   -4.157624|   -5.691506|
|         544|   -6.136386|   -4.252245|   -4.157558|   -5.692533|
|         545|   -6.136979|   -4.254274|   -4.157527|   -5.693539|
|         546|   -6.137682|   -4.255974|   -4.157541|   -5.694534|
|         547|   -6.138501|   -4.257309|   -4.157621|   -5.695532|
|         548|   -6.139441|   -4.258256|   -4.157787|   -5.696547|
|         549|   -6.140506|   -4.258807|   -4.158056|   -5.697593|
|         550|   -6.141698|   -4.258967|   -4.158443|   -5.698680|
|         551|   -6.143020|   -4.258753|   -4.158957|   -5.699817|
|         552|   -6.144476|   -4.258186|   -4.159604|   -5.701006|
|         553|   -6.146067|   -4.257290|   -4.160385|   -5.702249|
|         554|   -6.147793|   -4.256093|   -4.161297|   -5.703542|
|         555|   -6.149656|   -4.254627|   -4.162340|   -5.704879|
|         556|   -6.151652|   -4.252927|   -4.163508|   -5.706253|
|         557|   -6.153773|   -4.251026|   -4.164798|   -5.707657|
|         558|   -6.156013|   -4.248957|   -4.166205|   -5.709088|
|         559|   -6.158360|   -4.246746|   -4.167724|   -5.710543|
|         560|   -6.160801|   -4.244415|   -4.169344|   -5.712024|
|         561|   -6.163316|   -4.241975|   -4.171048|   -5.713537|
|         562|   -6.165892|   -4.239430|   -4.172822|   -5.715091|
|         563|   -6.168518|   -4.236773|   -4.174655|   -5.716695|
|         564|   -6.171186|   -4.233994|   -4.176536|   -5.718361|
|         565|   -6.173895|   -4.231085|   -4.178461|   -5.720098|
|         566|   -6.176647|   -4.228044|   -4.180429|   -5.721914|
|         567|   -6.179445|   -4.224877|   -4.182442|   -5.723815|
|         568|   -6.182294|   -4.221597|   -4.184501|   -5.725805|
|         569|   -6.185204|   -4.218225|   -4.186603|   -5.727885|
|         570|   -6.188189|   -4.214774|   -4.188744|   -5.730053|
|         571|   -6.191263|   -4.211261|   -4.190952|   -5.732307|
|         572|   -6.194437|   -4.207695|   -4.193231|   -5.734644|
|         573|   -6.197719|   -4.204091|   -4.195589|   -5.737060|
|         574|   -6.201118|   -4.200459|   -4.198030|   -5.739553|
|         575|   -6.204642|   -4.196813|   -4.200568|   -5.742118|
|         576|   -6.208292|   -4.193165|   -4.203201|   -5.744755|
|         577|   -6.212061|   -4.189525|   -4.205924|   -5.747461|
|         578|   -6.215947|   -4.185896|   -4.208743|   -5.750235|
|         579|   -6.219956|   -4.182282|   -4.211671|   -5.753077|
|         580|   -6.224092|   -4.178685|   -4.214721|   -5.755985|
|         581|   -6.228362|   -4.175109|   -4.217906|   -5.758959|
|         582|   -6.232773|   -4.171561|   -4.221240|   -5.761998|
|         583|   -6.237333|   -4.168053|   -4.224739|   -5.765102|
|         584|   -6.242053|   -4.164592|   -4.228421|   -5.768270|
|         585|   -6.246949|   -4.161183|   -4.232310|   -5.771500|
|         586|   -6.252032|   -4.157825|   -4.236420|   -5.774792|
|         587|   -6.257306|   -4.154518|   -4.240753|   -5.778144|
|         588|   -6.262800|   -4.151250|   -4.244967|   -5.781554|
|         589|   -6.268511|   -4.148023|   -4.249247|   -5.785019|
|         590|   -6.274454|   -4.144842|   -4.253796|   -5.788535|
|         591|   -6.280650|   -4.141717|   -4.258641|   -5.792104|
|         592|   -6.287117|   -4.138654|   -4.263807|   -5.795724|
|         593|   -6.293874|   -4.135659|   -4.269311|   -5.799394|
|         594|   -6.300925|   -4.132734|   -4.275151|   -5.803115|
|         595|   -6.308275|   -4.129888|   -4.281342|   -5.806886|
|         596|   -6.315936|   -4.127127|   -4.287910|   -5.810707|
|         597|   -6.323922|   -4.124462|   -4.294877|   -5.814577|
|         598|   -6.332241|   -4.121902|   -4.302254|   -5.818497|
|         599|   -6.340901|   -4.119455|   -4.310046|   -5.822465|
|         600|   -6.349907|   -4.117129|   -4.318255|   -5.826483|
|         601|   -6.359262|   -4.114927|   -4.326881|   -5.830548|
|         602|   -6.368960|   -4.112857|   -4.335915|   -5.834662|
|         603|   -6.378992|   -4.110923|   -4.345347|   -5.838823|
|         604|   -6.389352|   -4.109132|   -4.355174|   -5.843032|
|         605|   -6.400052|   -4.107488|   -4.365414|   -5.847287|
|         606|   -6.411034|   -4.105996|   -4.375956|   -5.851591|
|         607|   -6.422362|   -4.104649|   -4.386929|   -5.855943|
|         608|   -6.433868|   -4.103449|   -4.398034|   -5.860345|
|         609|   -6.445608|   -4.102391|   -4.409356|   -5.864798|
|         610|   -6.457532|   -4.101471|   -4.420794|   -5.869302|
|         611|   -6.469577|   -4.100685|   -4.432239|   -5.873860|
|         612|   -6.481688|   -4.100029|   -4.443594|   -5.878473|
|         613|   -6.493795|   -4.099501|   -4.454753|   -5.883143|
|         614|   -6.505802|   -4.099100|   -4.465598|   -5.887870|
|         615|   -6.517607|   -4.098824|   -4.476022|   -5.892656|
|         616|   -6.529099|   -4.098671|   -4.485927|   -5.897501|
|         617|   -6.540162|   -4.098635|   -4.495208|   -5.902406|
|         618|   -6.550673|   -4.098712|   -4.503765|   -5.907373|
|         619|   -6.560514|   -4.098901|   -4.511501|   -5.912403|
|         620|   -6.569573|   -4.099198|   -4.518331|   -5.917496|
|         621|   -6.577749|   -4.099603|   -4.524194|   -5.922654|
|         622|   -6.584962|   -4.100116|   -4.529054|   -5.927878|
|         623|   -6.591157|   -4.100738|   -4.532905|   -5.933168|
|         624|   -6.596304|   -4.101464|   -4.535771|   -5.938523|
|         625|   -6.600402|   -4.102291|   -4.537718|   -5.943944|
|         626|   -6.603474|   -4.103212|   -4.538835|   -5.949430|
|         627|   -6.605561|   -4.104218|   -4.539209|   -5.954982|
|         628|   -6.606721|   -4.105299|   -4.538913|   -5.960599|
|         629|   -6.607024|   -4.106446|   -4.538006|   -5.966281|
|         630|   -6.606562|   -4.107647|   -4.536553|   -5.972025|
|         631|   -6.605431|   -4.108891|   -4.534611|   -5.977831|
|         632|   -6.603727|   -4.110171|   -4.532242|   -5.983697|
|         633|   -6.601553|   -4.111482|   -4.529529|   -5.989622|
|         634|   -6.599004|   -4.112824|   -4.526581|   -5.995604|
|         635|   -6.596155|   -4.114200|   -4.523497|   -6.001643|
|         636|   -6.593067|   -4.115613|   -4.520365|   -6.007738|
|         637|   -6.589792|   -4.117065|   -4.517245|   -6.013887|
|         638|   -6.586361|   -4.118560|   -4.514175|   -6.020090|
|         639|   -6.582783|   -4.120103|   -4.511174|   -6.026347|
|         640|   -6.579064|   -4.121701|   -4.508229|   -6.032656|
|         641|   -6.575199|   -4.123362|   -4.505329|   -6.039018|
|         642|   -6.571172|   -4.125095|   -4.502452|   -6.045432|
|         643|   -6.566955|   -4.126913|   -4.499575|   -6.051899|
|         644|   -6.562516|   -4.128828|   -4.496681|   -6.058418|
|         645|   -6.557820|   -4.130848|   -4.493762|   -6.064992|
|         646|   -6.552809|   -4.132980|   -4.490788|   -6.071621|
|         647|   -6.547419|   -4.135224|   -4.487715|   -6.078309|
|         648|   -6.541610|   -4.137583|   -4.484526|   -6.085060|
|         649|   -6.535357|   -4.140058|   -4.481208|   -6.091877|
|         650|   -6.528659|   -4.142653|   -4.477756|   -6.098763|
|         651|   -6.521512|   -4.145374|   -4.474151|   -6.105721|
|         652|   -6.513907|   -4.148224|   -4.470356|   -6.112752|
|         653|   -6.505871|   -4.151207|   -4.466377|   -6.119860|
|         654|   -6.497487|   -4.154323|   -4.462268|   -6.127044|
|         655|   -6.488772|   -4.157568|   -4.458018|   -6.134301|
|         656|   -6.479738|   -4.160938|   -4.453596|   -6.141628|
|         657|   -6.470420|   -4.164435|   -4.449068|   -6.149020|
|         658|   -6.460867|   -4.168058|   -4.444496|   -6.156471|
|         659|   -6.451124|   -4.171806|   -4.439928|   -6.163971|
|         660|   -6.441240|   -4.175676|   -4.435381|   -6.171506|
|         661|   -6.431261|   -4.179665|   -4.430874|   -6.179059|
|         662|   -6.421230|   -4.183762|   -4.426411|   -6.186609|
|         663|   -6.411190|   -4.187961|   -4.422001|   -6.194132|
|         664|   -6.401189|   -4.192247|   -4.417684|   -6.201602|
|         665|   -6.391267|   -4.196613|   -4.413494|   -6.208987|
|         666|   -6.381444|   -4.201051|   -4.409454|   -6.216253|
|         667|   -6.371738|   -4.205549|   -4.405604|   -6.223364|
|         668|   -6.362190|   -4.210103|   -4.402000|   -6.230283|
|         669|   -6.352810|   -4.214697|   -4.398669|   -6.236971|
|         670|   -6.343584|   -4.219326|   -4.395589|   -6.243390|
|         671|   -6.334505|   -4.223989|   -4.392761|   -6.249501|
|         672|   -6.325578|   -4.228688|   -4.390209|   -6.255266|
|         673|   -6.316826|   -4.233426|   -4.387976|   -6.260644|
|         674|   -6.308242|   -4.238185|   -4.386064|   -6.265593|
|         675|   -6.299805|   -4.242936|   -4.384435|   -6.270076|
|         676|   -6.291562|   -4.247653|   -4.383017|   -6.274053|
|         677|   -6.283543|   -4.252331|   -4.381600|   -6.277489|
|         678|   -6.275669|   -4.256998|   -4.380433|   -6.280354|
|         679|   -6.267932|   -4.261658|   -4.379551|   -6.282619|
|         680|   -6.260324|   -4.266304|   -4.378982|   -6.284263|
|         681|   -6.252846|   -4.270918|   -4.378592|   -6.285270|
|         682|   -6.245459|   -4.275490|   -4.378466|   -6.285623|
|         683|   -6.238154|   -4.279997|   -4.378622|   -6.285309|
|         684|   -6.230920|   -4.284421|   -4.379069|   -6.284319|
|         685|   -6.223744|   -4.288742|   -4.379823|   -6.282645|
|         686|   -6.216611|   -4.292950|   -4.380907|   -6.280285|
|         687|   -6.209512|   -4.297050|   -4.382359|   -6.277248|
|         688|   -6.202434|   -4.301054|   -4.384212|   -6.273556|
|         689|   -6.195419|   -4.304957|   -4.385676|   -6.269297|
|         690|   -6.188393|   -4.308818|   -4.387189|   -6.264518|
|         691|   -6.181376|   -4.312697|   -4.389039|   -6.259274|
|         692|   -6.174374|   -4.316666|   -4.391280|   -6.253660|
|         693|   -6.167369|   -4.320795|   -4.393949|   -6.247801|
|         694|   -6.160357|   -4.325154|   -4.397117|   -6.241848|
|         695|   -6.153333|   -4.329806|   -4.400862|   -6.235957|
|         696|   -6.146304|   -4.334784|   -4.405277|   -6.230286|
|         697|   -6.139677|   -4.340004|   -4.404698|   -6.225508|
|         698|   -6.132986|   -4.345650|   -4.401936|   -6.221547|
|         699|   -6.126548|   -4.351688|   -4.399285|   -6.218217|
|         700|   -6.120535|   -4.357999|   -4.397112|   -6.215354|
|         701|   -6.114865|   -4.364474|   -4.395399|   -6.212789|
|         702|   -6.109443|   -4.371006|   -4.394043|   -6.210392|
|         703|   -6.104453|   -4.377364|   -4.387391|   -6.208415|
|         704|   -6.099339|   -4.383711|   -4.380084|   -6.206473|
|         705|   -6.094563|   -4.389989|   -4.373178|   -6.204441|
|         706|   -6.090152|   -4.396196|   -4.366789|   -6.202217|
|         707|   -6.086033|   -4.402352|   -4.360820|   -6.199750|
|         708|   -6.082148|   -4.408476|   -4.355183|   -6.197032|
|         709|   -6.078474|   -4.414579|   -4.349819|   -6.194057|
|         710|   -6.075008|   -4.420663|   -4.344686|   -6.190843|
|         711|   -6.071734|   -4.426703|   -4.339728|   -6.187369|
|         712|   -6.068729|   -4.432691|   -4.335051|   -6.183606|
|         713|   -6.065979|   -4.438597|   -4.330611|   -6.179511|
|         714|   -6.063442|   -4.444380|   -4.326332|   -6.174992|
|         715|   -6.061160|   -4.450008|   -4.322300|   -6.170109|
|         716|   -6.059125|   -4.455424|   -4.318502|   -6.164816|
|         717|   -6.057361|   -4.460584|   -4.314989|   -6.159157|
|         718|   -6.055817|   -4.465398|   -4.311681|   -6.153204|
|         719|   -6.054444|   -4.469769|   -4.308459|   -6.146989|
|         720|   -6.053391|   -4.473707|   -4.305625|   -6.140517|
|         721|   -6.052507|   -4.477144|   -4.302932|   -6.133748|
|         722|   -6.051804|   -4.480053|   -4.300388|   -6.126736|
|         723|   -6.051283|   -4.482391|   -4.298005|   -6.119645|
|         724|   -6.051069|   -4.484179|   -4.296032|   -6.112603|
|         725|   -6.050937|   -4.485319|   -4.294034|   -6.105627|
|         726|   -6.051020|   -4.485820|   -4.292234|   -6.098658|
|         727|   -6.051226|   -4.485609|   -4.290444|   -6.091701|
|         728|   -6.051577|   -4.484685|   -4.288739|   -6.084858|
|         729|   -6.052069|   -4.483151|   -4.287167|   -6.078188|
|         730|   -6.052633|   -4.481146|   -4.285653|   -6.071664|
|         731|   -6.053276|   -4.478830|   -4.284247|   -6.065247|
|         732|   -6.054022|   -4.476302|   -4.283017|   -6.058947|
|         733|   -6.054826|   -4.473605|   -4.281885|   -6.052798|
|         734|   -6.055670|   -4.470793|   -4.280812|   -6.046801|
|         735|   -6.056530|   -4.467969|   -4.279717|   -6.040902|
|         736|   -6.057581|   -4.465318|   -4.278984|   -6.035004|
|         737|   -6.058677|   -4.462849|   -4.278268|   -6.029013|
|         738|   -6.059887|   -4.460605|   -4.277682|   -6.022872|
|         739|   -6.061197|   -4.458622|   -4.277272|   -6.016545|
|         740|   -6.062574|   -4.456887|   -4.277065|   -6.010022|
|         741|   -6.063992|   -4.455391|   -4.277091|   -6.003337|
|         742|   -6.065454|   -4.454088|   -4.277370|   -5.996554|
|         743|   -6.066929|   -4.453034|   -4.277895|   -5.989718|
|         744|   -6.068400|   -4.452238|   -4.278650|   -5.982871|
|         745|   -6.069869|   -4.451634|   -4.279632|   -5.976111|
|         746|   -6.071342|   -4.451141|   -4.280809|   -5.969600|
|         747|   -6.072823|   -4.450658|   -4.282175|   -5.963554|
|         748|   -6.074305|   -4.450136|   -4.283736|   -5.958116|
|         749|   -6.075788|   -4.449568|   -4.285493|   -5.953344|
|         750|   -6.077287|   -4.448911|   -4.287502|   -5.949207|
|         751|   -6.078823|   -4.448149|   -4.289789|   -5.945652|
|         752|   -6.080407|   -4.447097|   -4.292371|   -5.942605|
|         753|   -6.082033|   -4.445557|   -4.295305|   -5.940029|
|         754|   -6.083672|   -4.443381|   -4.298645|   -5.937891|
|         755|   -6.085379|   -4.440497|   -4.302419|   -5.936098|
|         756|   -6.087152|   -4.436882|   -4.306676|   -5.934614|
|         757|   -6.088998|   -4.432578|   -4.311407|   -5.933413|
|         758|   -6.090928|   -4.427746|   -4.316534|   -5.932479|
|         759|   -6.093000|   -4.422688|   -4.322148|   -5.931757|
|         760|   -6.095170|   -4.417533|   -4.328128|   -5.931208|
|         761|   -6.097434|   -4.412282|   -4.334361|   -5.930948|
|         762|   -6.099846|   -4.406958|   -4.340809|   -5.930832|
|         763|   -6.102418|   -4.401532|   -4.347453|   -5.930854|
|         764|   -6.105091|   -4.395972|   -4.354259|   -5.931039|
|         765|   -6.107858|   -4.390274|   -4.361196|   -5.931431|
|         766|   -6.110750|   -4.384460|   -4.368247|   -5.932101|
|         767|   -6.113917|   -4.378562|   -4.375403|   -5.932982|
|         768|   -6.117184|   -4.372629|   -4.382636|   -5.934265|
|         769|   -6.120576|   -4.366653|   -4.389885|   -5.935935|
|         770|   -6.124176|   -4.360684|   -4.397057|   -5.937917|
|         771|   -6.127947|   -4.354726|   -4.404138|   -5.940272|
|         772|   -6.131873|   -4.348787|   -4.411078|   -5.942974|
|         773|   -6.135941|   -4.342916|   -4.417854|   -5.946047|
|         774|   -6.140131|   -4.337181|   -4.424459|   -5.949634|
|         775|   -6.144454|   -4.331600|   -4.430843|   -5.953659|
|         776|   -6.148950|   -4.326213|   -4.436985|   -5.958035|
|         777|   -6.153595|   -4.321035|   -4.442781|   -5.962741|
|         778|   -6.158331|   -4.316053|   -4.448134|   -5.967939|
|         779|   -6.163252|   -4.311253|   -4.452906|   -5.973460|
|         780|   -6.168332|   -4.306602|   -4.456935|   -5.979257|
|         781|   -6.173506|   -4.302052|   -4.460075|   -5.985215|
|         782|   -6.178718|   -4.297530|   -4.462179|   -5.991139|
|         783|   -6.183880|   -4.292959|   -4.463165|   -5.996702|
|         784|   -6.188842|   -4.288259|   -4.462823|   -6.001482|
|         785|   -6.193459|   -4.283375|   -4.461143|   -6.005099|
|         786|   -6.197575|   -4.278218|   -4.458188|   -6.007112|
|         787|   -6.201014|   -4.272895|   -4.454178|   -6.007220|
|         788|   -6.203534|   -4.267550|   -4.449970|   -6.005352|
|         789|   -6.205097|   -4.262442|   -4.446283|   -6.001688|
|         790|   -6.205872|   -4.258075|   -4.444625|   -5.996701|
|         791|   -6.206041|   -4.254686|   -4.443646|   -5.991067|
|         792|   -6.205937|   -4.253008|   -4.444329|   -5.985690|
|         793|   -6.206625|   -4.253237|   -4.447146|   -5.981313|
|         794|   -6.208969|   -4.255024|   -4.452031|   -5.978205|
|         795|   -6.214089|   -4.257883|   -4.458936|   -5.976481|
|         796|   -6.221793|   -4.261555|   -4.467832|   -5.976332|
|         797|   -6.231475|   -4.265607|   -4.477901|   -5.977810|
|         798|   -6.242679|   -4.269593|   -4.487922|   -5.980796|
|         799|   -6.254813|   -4.273222|   -4.497511|   -5.984978|
|         800|   -6.267064|   -4.276372|   -4.506544|   -5.990003|
|         801|   -6.279028|   -4.279064|   -4.514615|   -5.995539|
|         802|   -6.290599|   -4.281409|   -4.521518|   -6.001379|
|         803|   -6.301627|   -4.283448|   -4.527050|   -6.007340|
|         804|   -6.312189|   -4.285373|   -4.530987|   -6.013234|
|         805|   -6.322196|   -4.287157|   -4.533487|   -6.018718|
|         806|   -6.331740|   -4.288822|   -4.534881|   -6.023393|
|         807|   -6.340684|   -4.290388|   -4.535234|   -6.027014|
|         808|   -6.349033|   -4.291845|   -4.534798|   -6.029496|
|         809|   -6.356704|   -4.293166|   -4.533630|   -6.030814|
|         810|   -6.363650|   -4.294341|   -4.531785|   -6.030975|
|         811|   -6.370021|   -4.295384|   -4.529517|   -6.030041|
|         812|   -6.375785|   -4.296323|   -4.526998|   -6.028135|
|         813|   -6.381032|   -4.297190|   -4.524401|   -6.025379|
|         814|   -6.385970|   -4.298050|   -4.521807|   -6.021919|
|         815|   -6.390774|   -4.298911|   -4.519233|   -6.017778|
|         816|   -6.395653|   -4.299782|   -4.516598|   -6.013165|
|         817|   -6.400614|   -4.300723|   -4.513838|   -6.008208|
|         818|   -6.405731|   -4.301737|   -4.510947|   -6.003109|
|         819|   -6.410893|   -4.302815|   -4.507981|   -5.997858|
|         820|   -6.416245|   -4.303925|   -4.505049|   -5.992378|
|         821|   -6.421431|   -4.305017|   -4.502291|   -5.986843|
|         822|   -6.426166|   -4.305986|   -4.499774|   -5.981386|
|         823|   -6.430383|   -4.306771|   -4.497510|   -5.975867|
|         824|   -6.433943|   -4.307288|   -4.495390|   -5.970246|
|         825|   -6.436455|   -4.307446|   -4.493279|   -5.964577|
|         826|   -6.437833|   -4.307163|   -4.491041|   -5.958927|
|         827|   -6.437737|   -4.306440|   -4.488738|   -5.953263|
|         828|   -6.436601|   -4.305377|   -4.486463|   -5.947762|
|         829|   -6.434201|   -4.304144|   -4.484413|   -5.942279|
|         830|   -6.430837|   -4.302983|   -4.482958|   -5.936857|
|         831|   -6.427656|   -4.302114|   -4.481363|   -5.931659|
|         832|   -6.424639|   -4.301903|   -4.478615|   -5.926789|
|         833|   -6.420221|   -4.302047|   -4.476674|   -5.922441|
|         834|   -6.417415|   -4.302022|   -4.478210|   -5.918584|
|         835|   -6.417658|   -4.301663|   -4.482156|   -5.915327|
|         836|   -6.420005|   -4.301492|   -4.487040|   -5.912735|
|         837|   -6.424744|   -4.302420|   -4.492168|   -5.910543|
|         838|   -6.430486|   -4.304514|   -4.497630|   -5.908420|
|         839|   -6.435811|   -4.306796|   -4.503239|   -5.906064|
|         840|   -6.439918|   -4.308665|   -4.508164|   -5.903248|
|         841|   -6.441253|   -4.310119|   -4.511672|   -5.899982|
|         842|   -6.438422|   -4.311246|   -4.513771|   -5.896471|
|         843|   -6.431849|   -4.311992|   -4.514452|   -5.893020|
|         844|   -6.423046|   -4.312351|   -4.513404|   -5.889908|
|         845|   -6.412978|   -4.312218|   -4.510601|   -5.887182|
|         846|   -6.402839|   -4.311687|   -4.505790|   -5.884568|
|         847|   -6.392543|   -4.311511|   -4.499777|   -5.881673|
|         848|   -6.381574|   -4.312198|   -4.493650|   -5.878454|
|         849|   -6.369832|   -4.314230|   -4.488330|   -5.875074|
|         850|   -6.357662|   -4.317264|   -4.483456|   -5.871813|
|         851|   -6.345686|   -4.320515|   -4.479244|   -5.868883|
|         852|   -6.335290|   -4.323533|   -4.477269|   -5.866306|
|         853|   -6.327840|   -4.326165|   -4.478230|   -5.864017|
|         854|   -6.324161|   -4.328383|   -4.482288|   -5.861920|
|         855|   -6.323807|   -4.330253|   -4.489247|   -5.859894|
|         856|   -6.325085|   -4.331872|   -4.497599|   -5.857828|
|         857|   -6.326509|   -4.333304|   -4.505637|   -5.855645|
|         858|   -6.327042|   -4.334590|   -4.512148|   -5.853305|
|         859|   -6.326018|   -4.335723|   -4.516231|   -5.850807|
|         860|   -6.323216|   -4.336619|   -4.517252|   -5.848191|
|         861|   -6.318843|   -4.337192|   -4.514961|   -5.845526|
|         862|   -6.313143|   -4.337385|   -4.510025|   -5.842869|
|         863|   -6.306516|   -4.337169|   -4.502768|   -5.840272|
|         864|   -6.299462|   -4.336642|   -4.493588|   -5.837774|
|         865|   -6.292364|   -4.335849|   -4.482898|   -5.835376|
|         866|   -6.285532|   -4.334799|   -4.471090|   -5.833062|
|         867|   -6.279034|   -4.333458|   -4.458431|   -5.830817|
|         868|   -6.272777|   -4.331771|   -4.445229|   -5.828627|
|         869|   -6.266728|   -4.329681|   -4.431817|   -5.826468|
|         870|   -6.260673|   -4.327244|   -4.418452|   -5.824337|
|         871|   -6.254414|   -4.324431|   -4.405452|   -5.822234|
|         872|   -6.247730|   -4.321292|   -4.393085|   -5.820201|
|         873|   -6.240392|   -4.317770|   -4.381693|   -5.818258|
|         874|   -6.232193|   -4.313897|   -4.371469|   -5.816437|
|         875|   -6.223052|   -4.309869|   -4.362732|   -5.814776|
|         876|   -6.213162|   -4.305911|   -4.355680|   -5.813264|
|         877|   -6.202823|   -4.302502|   -4.350318|   -5.811887|
|         878|   -6.192504|   -4.300052|   -4.346654|   -5.810618|
|         879|   -6.182710|   -4.298592|   -4.344487|   -5.809430|
|         880|   -6.173956|   -4.298041|   -4.343307|   -5.808281|
|         881|   -6.166867|   -4.298273|   -4.342462|   -5.807138|
|         882|   -6.162220|   -4.299463|   -4.341153|   -5.805964|
|         883|   -6.160413|   -4.303100|   -4.338698|   -5.804832|
|         884|   -6.161338|   -4.311106|   -4.334749|   -5.803772|
|         885|   -6.163550|   -4.324726|   -4.329591|   -5.802777|
|         886|   -6.165198|   -4.340882|   -4.325619|   -5.801887|
|         887|   -6.166059|   -4.357231|   -4.324030|   -5.801070|
|         888|   -6.166231|   -4.372176|   -4.323820|   -5.800294|
|         889|   -6.165938|   -4.384442|   -4.324073|   -5.799547|
|         890|   -6.165404|   -4.393798|   -4.324189|   -5.798854|
|         891|   -6.164874|   -4.400972|   -4.323790|   -5.798253|
|         892|   -6.164491|   -4.406892|   -4.322392|   -5.797776|
|         893|   -6.164290|   -4.411598|   -4.320038|   -5.797451|
|         894|   -6.164214|   -4.415266|   -4.316962|   -5.797305|
|         895|   -6.164197|   -4.418062|   -4.313425|   -5.797344|
|         896|   -6.164218|   -4.420033|   -4.309607|   -5.797566|
|         897|   -6.164274|   -4.421271|   -4.305622|   -5.797955|
|         898|   -6.164355|   -4.421892|   -4.301537|   -5.798488|
|         899|   -6.164453|   -4.422030|   -4.297392|   -5.799135|
|         900|   -6.164562|   -4.421806|   -4.293217|   -5.799862|
|         901|   -6.164683|   -4.421329|   -4.289034|   -5.800631|
|         902|   -6.164822|   -4.420678|   -4.284869|   -5.801408|
|         903|   -6.164981|   -4.419902|   -4.280754|   -5.802166|
|         904|   -6.165163|   -4.419009|   -4.276718|   -5.802888|
|         905|   -6.165369|   -4.417973|   -4.272786|   -5.803564|
|         906|   -6.165601|   -4.416749|   -4.268965|   -5.804197|
|         907|   -6.165862|   -4.415274|   -4.265246|   -5.804792|
|         908|   -6.166159|   -4.413486|   -4.261667|   -5.805356|
|         909|   -6.166499|   -4.411345|   -4.258229|   -5.805898|
|         910|   -6.166900|   -4.408840|   -4.254941|   -5.806423|
|         911|   -6.167363|   -4.405983|   -4.251790|   -5.806935|
|         912|   -6.167900|   -4.402812|   -4.248778|   -5.807436|
|         913|   -6.168515|   -4.399379|   -4.245906|   -5.807926|
|         914|   -6.169208|   -4.395741|   -4.243171|   -5.808408|
|         915|   -6.169979|   -4.391954|   -4.240572|   -5.808883|
|         916|   -6.170824|   -4.388058|   -4.238110|   -5.809357|
|         917|   -6.171741|   -4.384073|   -4.235786|   -5.809834|
|         918|   -6.172730|   -4.380001|   -4.233602|   -5.810323|
|         919|   -6.173797|   -4.375822|   -4.231562|   -5.810830|
|         920|   -6.174950|   -4.371506|   -4.229676|   -5.811364|
|         921|   -6.176204|   -4.367014|   -4.227956|   -5.811931|
|         922|   -6.177576|   -4.362309|   -4.226420|   -5.812538|
|         923|   -6.179084|   -4.357359|   -4.225083|   -5.813190|
|         924|   -6.180743|   -4.352147|   -4.223961|   -5.813891|
|         925|   -6.182563|   -4.346668|   -4.223063|   -5.814644|
|         926|   -6.184547|   -4.340934|   -4.222395|   -5.815452|
|         927|   -6.186684|   -4.334970|   -4.221940|   -5.816314|
|         928|   -6.188964|   -4.328808|   -4.221690|   -5.817234|
|         929|   -6.191376|   -4.322487|   -4.221636|   -5.818211|
|         930|   -6.193908|   -4.316047|   -4.221771|   -5.819247|
|         931|   -6.196549|   -4.309525|   -4.222089|   -5.820341|
|         932|   -6.199289|   -4.302954|   -4.222588|   -5.821495|
|         933|   -6.202122|   -4.296365|   -4.223266|   -5.822709|
|         934|   -6.205041|   -4.289779|   -4.224126|   -5.823984|
|         935|   -6.208045|   -4.283218|   -4.225170|   -5.825320|
|         936|   -6.211127|   -4.276700|   -4.226399|   -5.826717|
|         937|   -6.214284|   -4.270242|   -4.227808|   -5.828176|
|         938|   -6.217507|   -4.263857|   -4.229392|   -5.829696|
|         939|   -6.220789|   -4.257560|   -4.231142|   -5.831278|
|         940|   -6.224123|   -4.251364|   -4.233053|   -5.832920|
|         941|   -6.227500|   -4.245283|   -4.235116|   -5.834623|
|         942|   -6.230916|   -4.239328|   -4.237330|   -5.836386|
|         943|   -6.234365|   -4.233510|   -4.239692|   -5.838210|
|         944|   -6.237846|   -4.227836|   -4.242207|   -5.840094|
|         945|   -6.241358|   -4.222312|   -4.244879|   -5.842038|
|         946|   -6.244899|   -4.216940|   -4.247717|   -5.844042|
|         947|   -6.248472|   -4.211722|   -4.250729|   -5.846108|
|         948|   -6.252078|   -4.206658|   -4.253929|   -5.848236|
|         949|   -6.255724|   -4.201747|   -4.257329|   -5.850427|
|         950|   -6.259413|   -4.196987|   -4.260947|   -5.852684|
|         951|   -6.263153|   -4.192376|   -4.264796|   -5.855009|
|         952|   -6.266952|   -4.187910|   -4.268889|   -5.857405|
|         953|   -6.270860|   -4.183564|   -4.272428|   -5.859871|
|         954|   -6.274835|   -4.179330|   -4.276096|   -5.862405|
|         955|   -6.278899|   -4.175187|   -4.279811|   -5.865013|
|         956|   -6.283068|   -4.171125|   -4.283777|   -5.867697|
|         957|   -6.287358|   -4.167128|   -4.288086|   -5.870463|
|         958|   -6.291795|   -4.163178|   -4.292762|   -5.873318|
|         959|   -6.296403|   -4.159258|   -4.297827|   -5.876270|
|         960|   -6.301209|   -4.155353|   -4.303297|   -5.879325|
|         961|   -6.306240|   -4.151449|   -4.309192|   -5.882492|
|         962|   -6.311525|   -4.147543|   -4.315527|   -5.885780|
|         963|   -6.317087|   -4.143622|   -4.322315|   -5.889199|
|         964|   -6.322955|   -4.139680|   -4.329567|   -5.892761|
[...]
|        1395|   -6.550281|   -4.134362|   -4.535434|   -6.211855|
|        1396|   -6.544156|   -4.135839|   -4.528374|   -6.211819|
|        1397|   -6.537984|   -4.137381|   -4.521518|   -6.211710|
|        1398|   -6.531729|   -4.138993|   -4.514863|   -6.211534|
|        1399|   -6.525360|   -4.140686|   -4.508405|   -6.211299|
|        1400|   -6.518844|   -4.142465|   -4.502134|   -6.211010|
|        1401|   -6.512146|   -4.144340|   -4.496067|   -6.210675|
|        1402|   -6.505240|   -4.146321|   -4.490201|   -6.210296|
|        1403|   -6.498111|   -4.148423|   -4.484525|   -6.209875|
|        1404|   -6.490746|   -4.150652|   -4.479043|   -6.209411|
|        1405|   -6.483141|   -4.153017|   -4.473745|   -6.208900|
|        1406|   -6.475295|   -4.155527|   -4.468626|   -6.208335|
|        1407|   -6.467221|   -4.158191|   -4.463688|   -6.207704|
|        1408|   -6.458933|   -4.161014|   -4.458929|   -6.206993|
|        1409|   -6.450452|   -4.164004|   -4.454349|   -6.206187|
|        1410|   -6.441808|   -4.167162|   -4.449950|   -6.205265|
|        1411|   -6.433028|   -4.170489|   -4.445720|   -6.204202|
|        1412|   -6.424130|   -4.173998|   -4.441645|   -6.202976|
|        1413|   -6.415157|   -4.177687|   -4.437715|   -6.201558|
|        1414|   -6.406145|   -4.181544|   -4.433925|   -6.199920|
|        1415|   -6.397118|   -4.185558|   -4.430272|   -6.198037|
|        1416|   -6.388109|   -4.189724|   -4.426758|   -6.195884|
|        1417|   -6.379157|   -4.194030|   -4.423356|   -6.193443|
|        1418|   -6.370280|   -4.198467|   -4.420087|   -6.190697|
|        1419|   -6.361489|   -4.203020|   -4.416963|   -6.187637|
|        1420|   -6.352800|   -4.207678|   -4.413983|   -6.184263|
|        1421|   -6.344220|   -4.212409|   -4.411156|   -6.180578|
|        1422|   -6.335755|   -4.217194|   -4.408479|   -6.176597|
|        1423|   -6.327410|   -4.221995|   -4.405951|   -6.172336|
|        1424|   -6.319193|   -4.226788|   -4.403573|   -6.167825|
|        1425|   -6.311114|   -4.231555|   -4.401345|   -6.163091|
|        1426|   -6.303181|   -4.236277|   -4.399265|   -6.158168|
|        1427|   -6.295396|   -4.240935|   -4.397337|   -6.153091|
|        1428|   -6.287762|   -4.245502|   -4.395564|   -6.147894|
|        1429|   -6.280284|   -4.249956|   -4.393961|   -6.142608|
|        1430|   -6.272979|   -4.254270|   -4.392445|   -6.137273|
|        1431|   -6.265872|   -4.258417|   -4.390798|   -6.131931|
|        1432|   -6.258904|   -4.262389|   -4.389279|   -6.126582|
|        1433|   -6.252080|   -4.266165|   -4.387917|   -6.121243|
|        1434|   -6.245386|   -4.269766|   -4.386738|   -6.115919|
|        1435|   -6.238822|   -4.273247|   -4.385771|   -6.110617|
|        1436|   -6.232420|   -4.276569|   -4.385044|   -6.105338|
|        1437|   -6.226152|   -4.279684|   -4.384483|   -6.100089|
|        1438|   -6.219997|   -4.282595|   -4.384126|   -6.094866|
|        1439|   -6.213940|   -4.285316|   -4.384091|   -6.089657|
|        1440|   -6.207978|   -4.287879|   -4.384429|   -6.084464|
|        1441|   -6.202105|   -4.290315|   -4.385211|   -6.079284|
|        1442|   -6.196313|   -4.292678|   -4.386481|   -6.074124|
|        1443|   -6.190640|   -4.295003|   -4.387778|   -6.069055|
|        1444|   -6.185065|   -4.297357|   -4.389149|   -6.064095|
|        1445|   -6.179564|   -4.299799|   -4.391003|   -6.059240|
|        1446|   -6.174152|   -4.302392|   -4.393445|   -6.054533|
|        1447|   -6.168967|   -4.305148|   -4.394948|   -6.050189|
|        1448|   -6.164418|   -4.308021|   -4.389048|   -6.046885|
|        1449|   -6.159974|   -4.311366|   -4.382504|   -6.043707|
|        1450|   -6.155792|   -4.315093|   -4.375940|   -6.040638|
|        1451|   -6.151865|   -4.319110|   -4.369633|   -6.037646|
|        1452|   -6.148089|   -4.323338|   -4.363621|   -6.034721|
|        1453|   -6.144402|   -4.327716|   -4.357879|   -6.031890|
|        1454|   -6.140819|   -4.332207|   -4.352443|   -6.029186|
|        1455|   -6.137397|   -4.336789|   -4.347370|   -6.026622|
|        1456|   -6.134174|   -4.341444|   -4.342678|   -6.024187|
|        1457|   -6.131144|   -4.346151|   -4.338317|   -6.021841|
|        1458|   -6.128263|   -4.350880|   -4.334196|   -6.019543|
|        1459|   -6.125472|   -4.355588|   -4.330229|   -6.017250|
|        1460|   -6.122724|   -4.360243|   -4.326348|   -6.014931|
|        1461|   -6.120001|   -4.364834|   -4.322529|   -6.012586|
|        1462|   -6.117314|   -4.369361|   -4.318787|   -6.010204|
|        1463|   -6.114687|   -4.373841|   -4.315151|   -6.007781|
|        1464|   -6.112146|   -4.378289|   -4.311645|   -6.005300|
|        1465|   -6.109707|   -4.382710|   -4.308275|   -6.002722|
|        1466|   -6.107335|   -4.387093|   -4.304980|   -6.000042|
|        1467|   -6.105152|   -4.391434|   -4.301969|   -5.997306|
|        1468|   -6.103071|   -4.395716|   -4.299094|   -5.994474|
|        1469|   -6.101094|   -4.399925|   -4.296361|   -5.991623|
|        1470|   -6.099233|   -4.404048|   -4.293780|   -5.988690|
|        1471|   -6.097496|   -4.408064|   -4.291360|   -5.985675|
|        1472|   -6.095993|   -4.411952|   -4.289298|   -5.982612|
|        1473|   -6.094418|   -4.415604|   -4.287041|   -5.979536|
|        1474|   -6.093174|   -4.419050|   -4.285284|   -5.976458|
|        1475|   -6.091967|   -4.422232|   -4.283541|   -5.973383|
|        1476|   -6.090894|   -4.425132|   -4.281977|   -5.970289|
|        1477|   -6.089958|   -4.427777|   -4.280564|   -5.967192|
|        1478|   -6.089170|   -4.430146|   -4.279347|   -5.964138|
|        1479|   -6.088589|   -4.432227|   -4.278385|   -5.961154|
|        1480|   -6.088051|   -4.433951|   -4.277457|   -5.958299|
|        1481|   -6.087732|   -4.435350|   -4.276712|   -5.955511|
|        1482|   -6.087546|   -4.436405|   -4.276086|   -5.952790|
|        1483|   -6.087507|   -4.437069|   -4.275564|   -5.950172|
|        1484|   -6.087626|   -4.437319|   -4.275197|   -5.947668|
|        1485|   -6.087927|   -4.437226|   -4.274996|   -5.945270|
|        1486|   -6.088334|   -4.436886|   -4.274914|   -5.942979|
|        1487|   -6.088857|   -4.436340|   -4.274926|   -5.940756|
|        1488|   -6.089507|   -4.435605|   -4.275112|   -5.938643|
|        1489|   -6.090269|   -4.434695|   -4.275356|   -5.936606|
|        1490|   -6.091224|   -4.433659|   -4.275848|   -5.934655|
|        1491|   -6.092257|   -4.432520|   -4.276383|   -5.932789|
|        1492|   -6.093376|   -4.431325|   -4.276952|   -5.930957|
|        1493|   -6.094623|   -4.430114|   -4.277628|   -5.929103|
|        1494|   -6.096008|   -4.428970|   -4.278433|   -5.927181|
|        1495|   -6.097525|   -4.427925|   -4.279373|   -5.925169|
|        1496|   -6.099150|   -4.426990|   -4.280458|   -5.923049|
|        1497|   -6.100853|   -4.426115|   -4.281705|   -5.920821|
|        1498|   -6.102621|   -4.425283|   -4.283146|   -5.918490|
|        1499|   -6.104436|   -4.424494|   -4.284793|   -5.916092|
|        1500|   -6.106288|   -4.423768|   -4.286637|   -5.913655|
+-----------------------------------------------------------------------+
|        File Writing Summary       |              Filename             |
+-----------------------------------------------------------------------+
|SU2 restart                        |restart_venturi_mixturedensity_30kW_fine_test.dat|
|                                   |                      (588.54 MB/s)|
|Paraview                           |flow_venturi_mixturedensity_30kW_fine_test_00001500.vtu|
|                                   |                     (6.75203 MB/s)|
|Paraview surface                   |surface_flow_venturi_mixturedensity_30kW_fine_test.vtu|
|                                   |                     (1.79257 MB/s)|
+-----------------------------------------------------------------------+
+----------------------------------------------------------------+
|  Inner_Iter|      rms[P]|      rms[U]|      rms[V]|      rms[c]|
+----------------------------------------------------------------+
|        1501|   -6.108169|   -4.423089|   -4.288670|   -5.911202|
|        1502|   -6.110076|   -4.422440|   -4.290899|   -5.908742|
|        1503|   -6.112002|   -4.421721|   -4.293310|   -5.906329|
|        1504|   -6.113937|   -4.420864|   -4.295906|   -5.904071|
|        1505|   -6.115881|   -4.419799|   -4.298699|   -5.902065|
|        1506|   -6.117833|   -4.418485|   -4.301705|   -5.900380|
|        1507|   -6.119790|   -4.416911|   -4.304927|   -5.899040|
|        1508|   -6.121766|   -4.415077|   -4.308372|   -5.898018|
|        1509|   -6.123780|   -4.412969|   -4.312051|   -5.897277|
|        1510|   -6.125849|   -4.410568|   -4.315985|   -5.896776|
|        1511|   -6.127971|   -4.407846|   -4.320179|   -5.896483|
|        1512|   -6.130135|   -4.404801|   -4.324633|   -5.896377|
|        1513|   -6.132341|   -4.401439|   -4.329345|   -5.896427|
|        1514|   -6.134608|   -4.397767|   -4.334330|   -5.896615|
|        1515|   -6.136953|   -4.393777|   -4.339589|   -5.896901|
|        1516|   -6.139366|   -4.389494|   -4.345104|   -5.897281|
|        1517|   -6.141831|   -4.384941|   -4.350873|   -5.897754|
|        1518|   -6.144341|   -4.380151|   -4.356892|   -5.898346|
|        1519|   -6.146955|   -4.375163|   -4.363145|   -5.899068|
|        1520|   -6.149654|   -4.370024|   -4.369600|   -5.899960|
|        1521|   -6.152454|   -4.364781|   -4.376233|   -5.900961|
|        1522|   -6.155362|   -4.359454|   -4.383020|   -5.902160|
|        1523|   -6.158327|   -4.354048|   -4.389928|   -5.903626|
|        1524|   -6.161435|   -4.348573|   -4.396918|   -5.905350|
|        1525|   -6.164728|   -4.343054|   -4.403966|   -5.907305|
|        1526|   -6.168149|   -4.337511|   -4.411041|   -5.909557|
|        1527|   -6.171677|   -4.331949|   -4.418106|   -5.912191|
|        1528|   -6.175352|   -4.326385|   -4.425122|   -5.915252|
|        1529|   -6.179246|   -4.320867|   -4.432070|   -5.918631|
|        1530|   -6.183326|   -4.315425|   -4.438905|   -5.922470|
|        1531|   -6.187538|   -4.310080|   -4.445607|   -5.926612|
|        1532|   -6.191984|   -4.304834|   -4.452133|   -5.930953|
|        1533|   -6.196599|   -4.299709|   -4.458457|   -5.935536|
|        1534|   -6.201340|   -4.294705|   -4.464545|   -5.940379|
|        1535|   -6.206303|   -4.289843|   -4.470372|   -5.945380|
|        1536|   -6.211378|   -4.285145|   -4.475950|   -5.950652|
|        1537|   -6.216616|   -4.280610|   -4.481275|   -5.956220|
|        1538|   -6.222102|   -4.276262|   -4.486354|   -5.962068|
|        1539|   -6.227774|   -4.272110|   -4.491249|   -5.968051|
|        1540|   -6.233601|   -4.268179|   -4.496007|   -5.974183|
|        1541|   -6.239577|   -4.264475|   -4.500693|   -5.980536|
|        1542|   -6.245714|   -4.260993|   -4.505290|   -5.987053|
|        1543|   -6.251983|   -4.257728|   -4.509777|   -5.993767|
|        1544|   -6.258347|   -4.254663|   -4.514153|   -6.000685|
|        1545|   -6.264816|   -4.251770|   -4.518420|   -6.007773|
|        1546|   -6.271349|   -4.249042|   -4.522564|   -6.015082|
|        1547|   -6.277939|   -4.246449|   -4.526573|   -6.022499|
|        1548|   -6.284601|   -4.243959|   -4.530393|   -6.029874|
|        1549|   -6.291307|   -4.241566|   -4.533952|   -6.037123|
|        1550|   -6.298038|   -4.239272|   -4.537125|   -6.044138|
|        1551|   -6.304776|   -4.237059|   -4.539887|   -6.050795|
|        1552|   -6.311545|   -4.234930|   -4.542188|   -6.056962|
|        1553|   -6.318315|   -4.232914|   -4.543892|   -6.062548|
|        1554|   -6.325048|   -4.231020|   -4.544973|   -6.067578|
|        1555|   -6.331680|   -4.229245|   -4.545411|   -6.072038|
|        1556|   -6.338166|   -4.227637|   -4.545181|   -6.075926|
|        1557|   -6.344460|   -4.226172|   -4.544614|   -6.079264|
|        1558|   -6.350513|   -4.224839|   -4.543934|   -6.082103|
|        1559|   -6.356296|   -4.223657|   -4.543198|   -6.084523|
|        1560|   -6.361850|   -4.222659|   -4.542447|   -6.086555|
|        1561|   -6.367211|   -4.221828|   -4.541644|   -6.088231|
|        1562|   -6.372393|   -4.221142|   -4.540675|   -6.089626|
|        1563|   -6.377455|   -4.220576|   -4.539460|   -6.090693|
|        1564|   -6.382432|   -4.220068|   -4.538021|   -6.091439|
|        1565|   -6.387321|   -4.219580|   -4.536213|   -6.091701|
|        1566|   -6.392325|   -4.219086|   -4.533885|   -6.091400|
|        1567|   -6.397103|   -4.218594|   -4.530950|   -6.090539|
|        1568|   -6.401919|   -4.218117|   -4.527571|   -6.089091|
|        1569|   -6.406449|   -4.217671|   -4.523575|   -6.087048|
|        1570|   -6.410732|   -4.217271|   -4.519056|   -6.084393|
|        1571|   -6.414794|   -4.216914|   -4.514199|   -6.081136|
|        1572|   -6.418676|   -4.216612|   -4.509219|   -6.077311|
|        1573|   -6.422432|   -4.216370|   -4.504280|   -6.073019|
|        1574|   -6.426154|   -4.216175|   -4.499452|   -6.068268|
|        1575|   -6.429799|   -4.216006|   -4.494751|   -6.062983|
|        1576|   -6.433305|   -4.215822|   -4.490117|   -6.057223|
|        1577|   -6.436495|   -4.215558|   -4.485518|   -6.051138|
|        1578|   -6.439388|   -4.215197|   -4.480903|   -6.044857|
|        1579|   -6.441827|   -4.214741|   -4.476289|   -6.038442|
|        1580|   -6.443552|   -4.214176|   -4.471706|   -6.031938|
|        1581|   -6.444412|   -4.213517|   -4.467352|   -6.025402|
|        1582|   -6.444309|   -4.212844|   -4.463403|   -6.018962|
|        1583|   -6.443324|   -4.212206|   -4.459877|   -6.013029|
|        1584|   -6.442316|   -4.211703|   -4.456594|   -6.007881|
|        1585|   -6.440953|   -4.211560|   -4.452985|   -6.003663|
|        1586|   -6.439609|   -4.211770|   -4.449501|   -6.000216|
|        1587|   -6.440336|   -4.212081|   -4.447326|   -5.997272|
|        1588|   -6.443370|   -4.212158|   -4.446487|   -5.995139|
|        1589|   -6.447313|   -4.212051|   -4.446650|   -5.993876|
|        1590|   -6.452786|   -4.212352|   -4.447321|   -5.992984|
|        1591|   -6.459678|   -4.213349|   -4.448047|   -5.992046|
|        1592|   -6.465586|   -4.214712|   -4.448759|   -5.990779|
|        1593|   -6.470112|   -4.216006|   -4.449346|   -5.988877|
|        1594|   -6.472942|   -4.217130|   -4.449410|   -5.986209|
|        1595|   -6.473001|   -4.218150|   -4.448542|   -5.982926|
|        1596|   -6.469984|   -4.219130|   -4.446839|   -5.979445|
|        1597|   -6.464092|   -4.220076|   -4.444643|   -5.976364|
|        1598|   -6.455999|   -4.220892|   -4.442025|   -5.974173|
|        1599|   -6.446637|   -4.221445|   -4.438778|   -5.973013|
|        1600|   -6.436590|   -4.221701|   -4.434739|   -5.972340|
|        1601|   -6.425796|   -4.221830|   -4.430304|   -5.971417|
|        1602|   -6.414226|   -4.222052|   -4.426305|   -5.969908|
|        1603|   -6.401860|   -4.222660|   -4.423034|   -5.968021|
|        1604|   -6.389205|   -4.223561|   -4.419933|   -5.966329|
|        1605|   -6.376970|   -4.224417|   -4.416733|   -5.965387|
|        1606|   -6.366306|   -4.225042|   -4.414219|   -5.965385|
|        1607|   -6.358523|   -4.225476|   -4.413318|   -5.966228|
|        1608|   -6.353895|   -4.225855|   -4.414475|   -5.967785|
|        1609|   -6.352785|   -4.226254|   -4.416465|   -5.969978|
|        1610|   -6.357828|   -4.226760|   -4.420621|   -5.972248|
|        1611|   -6.365990|   -4.227523|   -4.426619|   -5.974290|
|        1612|   -6.373461|   -4.228673|   -4.432887|   -5.975977|
|        1613|   -6.378868|   -4.230229|   -4.438654|   -5.977243|
|        1614|   -6.382203|   -4.232141|   -4.443797|   -5.978092|
|        1615|   -6.383494|   -4.234332|   -4.448239|   -5.978540|
|        1616|   -6.382675|   -4.236731|   -4.451862|   -5.978657|
|        1617|   -6.379727|   -4.239258|   -4.454560|   -5.978493|
|        1618|   -6.374796|   -4.241836|   -4.456283|   -5.978103|
|        1619|   -6.368126|   -4.244406|   -4.457040|   -5.977513|
|        1620|   -6.360037|   -4.246930|   -4.456953|   -5.976751|
|        1621|   -6.350872|   -4.249348|   -4.456154|   -5.975848|
|        1622|   -6.340945|   -4.251607|   -4.454782|   -5.974819|
|        1623|   -6.330588|   -4.253616|   -4.452950|   -5.973705|
|        1624|   -6.319986|   -4.255322|   -4.450661|   -5.972520|
|        1625|   -6.309431|   -4.256689|   -4.447929|   -5.971286|
|        1626|   -6.299128|   -4.257744|   -4.444751|   -5.970000|
|        1627|   -6.289295|   -4.258499|   -4.441114|   -5.968668|
|        1628|   -6.279973|   -4.258948|   -4.437032|   -5.967375|
|        1629|   -6.271032|   -4.258995|   -4.432489|   -5.965825|
|        1630|   -6.261633|   -4.258778|   -4.427492|   -5.964817|
|        1631|   -6.253210|   -4.258566|   -4.422034|   -5.964333|
|        1632|   -6.244869|   -4.258124|   -4.416114|   -5.964400|
|        1633|   -6.235997|   -4.258021|   -4.409873|   -5.966225|
|        1634|   -6.228614|   -4.257874|   -4.403477|   -5.969213|
|        1635|   -6.221760|   -4.257819|   -4.397083|   -5.972964|
|        1636|   -6.215303|   -4.258024|   -4.390819|   -5.977082|
|        1637|   -6.209213|   -4.258661|   -4.384687|   -5.981412|
|        1638|   -6.203643|   -4.259625|   -4.378523|   -5.985874|
|        1639|   -6.198631|   -4.260730|   -4.372154|   -5.990476|
|        1640|   -6.194224|   -4.261887|   -4.365440|   -5.995246|
|        1641|   -6.190425|   -4.262999|   -4.358269|   -6.000074|
|        1642|   -6.187191|   -4.263998|   -4.350545|   -6.004845|
|        1643|   -6.184377|   -4.264752|   -4.342254|   -6.009452|
|        1644|   -6.181766|   -4.265032|   -4.333396|   -6.013882|
|        1645|   -6.179168|   -4.264513|   -4.323961|   -6.018161|
|        1646|   -6.176459|   -4.262897|   -4.313916|   -6.022366|
|        1647|   -6.173591|   -4.259969|   -4.303227|   -6.026558|
|        1648|   -6.170587|   -4.255719|   -4.291878|   -6.030759|
|        1649|   -6.167504|   -4.250338|   -4.279912|   -6.034958|
|        1650|   -6.164433|   -4.244057|   -4.267426|   -6.039029|
|        1651|   -6.161425|   -4.237156|   -4.254535|   -6.042784|
|        1652|   -6.158504|   -4.229965|   -4.241432|   -6.045995|
|        1653|   -6.155691|   -4.222721|   -4.228330|   -6.048362|
|        1654|   -6.152957|   -4.215598|   -4.215434|   -6.049620|
|        1655|   -6.150252|   -4.208693|   -4.202956|   -6.049550|
|        1656|   -6.147498|   -4.201984|   -4.191103|   -6.048017|
|        1657|   -6.144610|   -4.195345|   -4.180066|   -6.044974|
|        1658|   -6.141479|   -4.188607|   -4.169971|   -6.040470|
|        1659|   -6.137999|   -4.181677|   -4.160948|   -6.034620|
|        1660|   -6.134108|   -4.174697|   -4.153145|   -6.027603|
|        1661|   -6.129805|   -4.167854|   -4.146532|   -6.019599|
|        1662|   -6.125162|   -4.161538|   -4.141129|   -6.010792|
|        1663|   -6.120292|   -4.156208|   -4.136915|   -6.001378|
|        1664|   -6.115359|   -4.152318|   -4.133898|   -5.991522|
|        1665|   -6.110515|   -4.150240|   -4.132007|   -5.981393|
|        1666|   -6.105874|   -4.150174|   -4.131112|   -5.971164|
|        1667|   -6.101539|   -4.152084|   -4.131106|   -5.961036|
|        1668|   -6.097564|   -4.155698|   -4.131998|   -5.951206|
|        1669|   -6.093975|   -4.160688|   -4.133715|   -5.941963|
|        1670|   -6.090897|   -4.166417|   -4.136322|   -5.933548|
|        1671|   -6.088289|   -4.171944|   -4.139611|   -5.925996|
|        1672|   -6.086471|   -4.176453|   -4.143146|   -5.920373|
|        1673|   -6.086810|   -4.181173|   -4.147441|   -5.917224|
|        1674|   -6.089651|   -4.186414|   -4.152190|   -5.915465|
|        1675|   -6.094033|   -4.190064|   -4.156446|   -5.915194|
|        1676|   -6.099220|   -4.196017|   -4.159438|   -5.917920|
|        1677|   -6.104821|   -4.209020|   -4.161388|   -5.923999|
