scsub> Executing:  'cd /home/hem1dev/Codes/SU2_Github_Mark_Test/SU2/Venturi'


WARNING: CONV_CRITERIA is deprecated. SU2 will choose the criteria automatically based on the CONV_FIELD.
That is, RESIDUAL for any RMS_* BGS_* value, and CAUCHY for coefficients such as DRAG etc.


-------------------------------------------------------------------------
|    ___ _   _ ___                                                      |
|   / __| | | |_  )   Release 7.1.1 "Blackbird"                         |
|   \__ \ |_| |/ /                                                      |
|   |___/\___//___|   Suite (Computational Fluid Dynamics Code)         |
|                                                                       |
-------------------------------------------------------------------------
| SU2 Project Website: https://su2code.github.io                        |
|                                                                       |
| The SU2 Project is maintained by the SU2 Foundation                   |
| (http://su2foundation.org)                                            |
-------------------------------------------------------------------------
| Copyright 2012-2021, SU2 Contributors                                 |
|                                                                       |
| SU2 is free software; you can redistribute it and/or                  |
| modify it under the terms of the GNU Lesser General Public            |
| License as published by the Free Software Foundation; either          |
| version 2.1 of the License, or (at your option) any later version.    |
|                                                                       |
| SU2 is distributed in the hope that it will be useful,                |
| but WITHOUT ANY WARRANTY; without even the implied warranty of        |
| MERCHANTABILITY or FITNESS FOR A PARTICULAR PURPOSE. See the GNU      |
| Lesser General Public License for more details.                       |
|                                                                       |
| You should have received a copy of the GNU Lesser General Public      |
| License along with SU2. If not, see <http://www.gnu.org/licenses/>.   |
-------------------------------------------------------------------------


WARNING: CONV_CRITERIA is deprecated. SU2 will choose the criteria automatically based on the CONV_FIELD.
That is, RESIDUAL for any RMS_* BGS_* value, and CAUCHY for coefficients such as DRAG etc.


Parsing config file for zone 0


WARNING: CONV_CRITERIA is deprecated. SU2 will choose the criteria automatically based on the CONV_FIELD.
That is, RESIDUAL for any RMS_* BGS_* value, and CAUCHY for coefficients such as DRAG etc.


----------------- Physical Case Definition ( Zone 0 ) -------------------
Incompressible Laminar Navier-Stokes' equations.
No restart solution, use the values at infinity (freestream).
Dimensional simulation.
The reference area is 1 m^2.
The semi-span will be computed using the max y(3D) value.
The reference length is 1 m.
Input mesh file name: c6_cms_venturi.cgns

--------------- Space Numerical Integration ( Zone 0 ) ------------------
Flux difference splitting (FDS) upwind scheme for the flow inviscid terms.
Second order integration in space, with slope limiter.
No slope-limiting method. 
Average of gradients with correction (viscous flow terms).
Gradient for upwind reconstruction: Green-Gauss.
Gradient for viscous and source terms: Green-Gauss.

--------------- Time Numerical Integration  ( Zone 0 ) ------------------
Local time stepping (steady state simulation).
Euler implicit method for the flow equations.
FGMRES is used for solving the linear system.
Using a ILU(0) preconditioning.
Convergence criteria of the linear solver: 1e-05.
Max number of linear iterations: 10.
No CFL adaptation.
Courant-Friedrichs-Lewy number:       35

------------------ Convergence Criteria  ( Zone 0 ) ---------------------
Maximum number of solver subiterations: 10000.
Begin convergence monitoring at iteration 10.
Residual minimum value: 1e-10.
Cauchy series min. value: 1e-06.
Number of Cauchy elements: 100.
Begin windowed time average at iteration 0.

-------------------- Output Information ( Zone 0 ) ----------------------
Writing solution files every 1000 iterations.
Writing the convergence history file every 1 inner iterations.
Writing the screen convergence history every 1 inner iterations.
The tabular file format is CSV (.csv).
Convergence history file name: history.
Forces breakdown file name: forces_breakdown.dat.
Surface file name: surface_flow_venturi_mixturedensity_30kW_fine.
Volume file name: flow_venturi_mixturedensity_30kW_fine.
Restart file name: restart_venturi_mixturedensity_30kW_fine.dat.

------------- Config File Boundary Information ( Zone 0 ) ---------------
+-----------------------------------------------------------------------+
|                        Marker Type|                        Marker Name|
+-----------------------------------------------------------------------+
|                     Symmetry plane|                               axis|
+-----------------------------------------------------------------------+
|                     Inlet boundary|                          gas_inlet|
|                                   |                          air_inlet|
+-----------------------------------------------------------------------+
|                    Outlet boundary|                             outlet|
+-----------------------------------------------------------------------+
|                     Heat flux wall|            wall-component1-surface|
+-----------------------------------------------------------------------+

-------------------- Output Preprocessing ( Zone 0 ) --------------------
Screen output fields: INNER_ITER, RMS_PRESSURE, RMS_VELOCITY-X, RMS_VELOCITY-Y, RMS_PASSIVE_SCALAR
History output group(s): RMS_RES, AERO_COEFF, FLOW_COEFF
Ignoring Convergence Field(s): RMS_DENSITY RMS_TKE 
Convergence field(s): RMS_PRESSURE, RMS_VELOCITY-X, RMS_VELOCITY-Y
Warning: No (valid) fields chosen for time convergence monitoring. Time convergence monitoring inactive.
  Info: Ignoring the following volume output fields/groups:
  SOURCE, LOOKUP
Volume output fields: DENSITY, SOLUTION, PRIMITIVE, RESIDUAL, COORDINATES

------------------- Geometry Preprocessing ( Zone 0 ) -------------------
Reading the CGNS file: c6_cms_venturi.cgns.
CGNS file contains 1 database(s).
Database 1, Base:  cell dimension of 2, physical dimension of 2.
1 total zone(s).
Zone 1, Zone: 292948 total vertices, 295883 total elements.
Loading CoordinateX values into linear partitions.
Loading CoordinateY values into linear partitions.
Distributing connectivity across all ranks.
Number of connectivity sections is 6.
Section gas_inlet contains 51 elements of type Mixed.
Section air_inlet contains 150 elements of type Mixed.
Section outlet contains 157 elements of type Mixed.
Section axis contains 1721 elements of type Mixed.
Section component1-surface contains 290183 elements of type Mixed.
Section wall-component1-surface contains 3621 elements of type Mixed.
Loading surface section gas_inlet from file.
Loading surface section air_inlet from file.
Loading surface section outlet from file.
Loading surface section axis from file.
Loading volume section component1-surface from file.
Loading surface section wall-component1-surface from file.
Two dimensional problem.
292948 grid points before partitioning.
290183 volume elements before partitioning.
5 surface markers.
51 boundary elements in index 0 (Marker = gas_inlet).
150 boundary elements in index 1 (Marker = air_inlet).
157 boundary elements in index 2 (Marker = outlet).
1721 boundary elements in index 3 (Marker = axis).
3621 boundary elements in index 4 (Marker = wall-component1-surface).
Executing the partitioning functions.
Building the graph adjacency structure.
Calling ParMETIS... graph partitioning complete (13652 edge cuts).
Distributing ParMETIS coloring.
Rebalancing vertices.
Rebalancing volume element connectivity.
Rebalancing markers and surface elements.
320599 vertices including ghost points. 
303871 interior elements including halo cells. 
174 triangles.
303697 quadrilaterals.
Establishing MPI communication patterns.
Setting point connectivity.
Renumbering points (Reverse Cuthill McKee Ordering).
Recomputing point connectivity.
Setting element connectivity.
Checking the numerical grid orientation.
All volume elements are correctly orientend.
All surface elements are correctly orientend.
Identifying edges and vertices.
Setting the control volume structure.
Area of the computational grid: 0.00285998.
Searching for the closest normal neighbors to the surfaces.
Storing a mapping from global to local point index.
Compute the surface curvature.
Max K: 25766.3. Mean K: 66.0693. Standard deviation K: 1007.76.
Checking for periodicity.
Computing mesh quality statistics for the dual control volumes.
+--------------------------------------------------------------+
|           Mesh Quality Metric|        Minimum|        Maximum|
+--------------------------------------------------------------+
|    Orthogonality Angle (deg.)|        45.2115|             90|
|     CV Face Area Aspect Ratio|              1|        10.3208|
|           CV Sub-Volume Ratio|              1|        9.85984|
+--------------------------------------------------------------+
Finding max control volume width.
Communicating number of neighbors.
Wetted area = 0 m.
Area projection in the x-plane = 0 m, y-plane = 0 m.
Max. coordinate in the x-direction = -1e+10 m, y-direction = -1e+10 m.
Min. coordinate in the x-direction = 1e+10 m, y-direction = 1e+10 m.
Checking if Euler & Symmetry markers are straight/plane:
Boundary marker axis is a single straight.
Computing wall distances.

-------------------- Solver Preprocessing ( Zone 0 ) --------------------
Incompressible flow: rho_ref, vel_ref, temp_ref, p_ref
are set to 1.0 in order to perform a dimensional calculation.
Force coefficients computed using initial values.
The reference area for force coeffs. is 1 m^2.
The reference length for force coeffs. is 1 m.
The pressure is decomposed into thermodynamic and dynamic components.
The initial value of the dynamic pressure is 0.
Mach number: 0, computed using fluid speed of sound.
For external flows, the initial state is imposed at the far-field.
Angle of attack (deg): 0, computed using the initial velocity.
Side slip angle (deg): 0, computed using the initial velocity.
Reynolds number per meter: 66852.4, computed using initial values.
Reynolds number is a byproduct of inputs only (not used internally).
SI units only. The grid should be dimensional (meters).
Energy equation is active and coupled for variable density.

-- Models:
+------------------------------------------------------------------------------+
|          Viscosity Model|        Conductivity Model|              Fluid Model|
+------------------------------------------------------------------------------+
|               SUTHERLAND|          CONSTANT_PRANDTL|+------------------------------------------------------------------------------+
-- Fluid properties:
+------------------------------------------------------------------------------+
|                  Name|    Dim. value|    Ref. value|      Unit|Non-dim. value|
+------------------------------------------------------------------------------+
|        Ref. Viscosity|     1.716e-05|             1|   N.s/m^2|     1.716e-05|
|      Sutherland Temp.|        273.15|             1|         K|        273.15|
|     Sutherland Const.|         110.4|             1|         K|         110.4|
+------------------------------------------------------------------------------+
|        Prandtl (Lam.)|             -|             -|         -|          0.72|
|       Prandtl (Turb.)|             -|             -|         -|           0.9|
+------------------------------------------------------------------------------+
-- Initial and free-stream conditions:
+------------------------------------------------------------------------------+
|                  Name|    Dim. value|    Ref. value|      Unit|Non-dim. value|
+------------------------------------------------------------------------------+
|      Dynamic Pressure|             0|             1|        Pa|             0|
|        Total Pressure|           0.6|             1|        Pa|           0.6|
|               Density|           1.2|             1|    kg/m^3|           1.2|
|           Temperature|           300|             1|         K|           300|
|            Velocity-X|             1|             1|       m/s|             1|
|            Velocity-Y|             0|             1|       m/s|             0|
|    Velocity Magnitude|             1|             1|       m/s|             1|
+------------------------------------------------------------------------------+
|             Viscosity|     1.795e-05|             1|   N.s/m^2|     1.795e-05|
|          Conductivity|             -|             1|   W/m^2.K|             -|
+------------------------------------------------------------------------------+
|           Mach Number|             -|             -|         -|             0|
|       Reynolds Number|             -|             -|         -|       66852.4|
+------------------------------------------------------------------------------+
Initialize Jacobian structure (Navier-Stokes). MG level: 0.
Initialize Jacobian structure (passive scalar model).

------------------- Numerics Preprocessing ( Zone 0 ) -------------------

----------------- Integration Preprocessing ( Zone 0 ) ------------------

------------------- Iteration Preprocessing ( Zone 0 ) ------------------
Euler/Navier-Stokes/RANS fluid iteration.

------------------------------ Begin Solver -----------------------------

Simulation Run using the Single-zone Driver
Initializing passive scalar (initial condition).
initialization = 1 1
+----------------------------------------------------------------+
|  Inner_Iter|      rms[P]|      rms[U]|      rms[V]|      rms[c]|
+----------------------------------------------------------------+
|           0|   -4.749965|   -4.481098|   -3.999037|   -5.202139|
|           1|   -5.137114|   -4.471774|   -4.158817|   -5.064390|
|           2|   -5.321922|   -4.573574|   -4.193993|   -5.096375|
|           3|   -5.535044|   -4.703208|   -4.355398|   -5.203218|
|           4|   -5.651063|   -4.758081|   -4.421699|   -5.281425|
|           5|   -5.691133|   -4.784259|   -4.451259|   -5.325202|
|           6|   -5.727932|   -4.799786|   -4.473999|   -5.352612|
|           7|   -5.755740|   -4.811994|   -4.495170|   -5.371680|
|           8|   -5.760502|   -4.820576|   -4.522696|   -5.383494|
|           9|   -5.747972|   -4.824099|   -4.565322|   -5.390274|
|          10|   -5.724431|   -4.822818|   -4.627750|   -5.395975|
|          11|   -5.702794|   -4.816639|   -4.711586|   -5.404398|
|          12|   -5.692251|   -4.805969|   -4.813706|   -5.418457|
|          13|   -5.694953|   -4.792498|   -4.913234|   -5.439923|
|          14|   -5.708397|   -4.778644|   -4.963046|   -5.469981|
|          15|   -5.729212|   -4.766568|   -4.944722|   -5.508094|
|          16|   -5.753934|   -4.757559|   -4.899750|   -5.552180|
|          17|   -5.779275|   -4.752522|   -4.858892|   -5.599493|
|          18|   -5.801993|   -4.751556|   -4.830319|   -5.646920|
|          19|   -5.819069|   -4.753924|   -4.812606|   -5.691495|
|          20|   -5.826067|   -4.758298|   -4.799290|   -5.730644|
|          21|   -5.816816|   -4.763162|   -4.780018|   -5.762161|
|          22|   -5.788579|   -4.767255|   -4.742165|   -5.785243|
|          23|   -5.748923|   -4.769890|   -4.679822|   -5.801279|
|          24|   -5.710190|   -4.770885|   -4.612117|   -5.812602|
|          25|   -5.683259|   -4.770249|   -4.556379|   -5.820399|
|          26|   -5.673793|   -4.768516|   -4.521509|   -5.822543|
|          27|   -5.682026|   -4.766652|   -4.507587|   -5.816099|
|          28|   -5.705387|   -4.765721|   -4.510360|   -5.799593|
|          29|   -5.740169|   -4.766429|   -4.524511|   -5.775050|
|          30|   -5.781653|   -4.768748|   -4.545339|   -5.745568|
|          31|   -5.824278|   -4.771824|   -4.569415|   -5.714680|
|          32|   -5.861975|   -4.774269|   -4.595472|   -5.685476|
|          33|   -5.889426|   -4.774663|   -4.624355|   -5.659932|
|          34|   -5.904189|   -4.772013|   -4.657939|   -5.639496|
|          35|   -5.907811|   -4.766019|   -4.698288|   -5.624926|
|          36|   -5.904782|   -4.757026|   -4.746700|   -5.616330|
|          37|   -5.900105|   -4.745811|   -4.803125|   -5.613325|
|          38|   -5.897612|   -4.733340|   -4.865148|   -5.615225|
|          39|   -5.899534|   -4.720551|   -4.926989|   -5.621141|
|          40|   -5.906690|   -4.708231|   -4.978888|   -5.629973|
|          41|   -5.918779|   -4.696972|   -5.009870|   -5.640688|
|          42|   -5.934543|   -4.687141|   -5.015166|   -5.652014|
|          43|   -5.951854|   -4.678919|   -4.999629|   -5.662842|
|          44|   -5.967890|   -4.672349|   -4.972157|   -5.672313|
|          45|   -5.979677|   -4.667400|   -4.939551|   -5.679913|
|          46|   -5.985108|   -4.664000|   -4.905475|   -5.685439|
|          47|   -5.983953|   -4.662040|   -4.871941|   -5.688972|
|          48|   -5.978033|   -4.661352|   -4.840554|   -5.690731|
|          49|   -5.970345|   -4.661676|   -4.812716|   -5.690959|
|          50|   -5.963849|   -4.662655|   -4.789479|   -5.689831|
|          51|   -5.960699|   -4.663860|   -4.771358|   -5.687463|
|          52|   -5.962031|   -4.664856|   -4.758331|   -5.683951|
|          53|   -5.968074|   -4.665287|   -4.750035|   -5.679301|
|          54|   -5.978330|   -4.664939|   -4.746072|   -5.673689|
|          55|   -5.991747|   -4.663769|   -4.746187|   -5.667322|
|          56|   -6.006891|   -4.661880|   -4.750277|   -5.660534|
|          57|   -6.022120|   -4.659456|   -4.758517|   -5.653672|
|          58|   -6.035866|   -4.656697|   -4.771172|   -5.647091|
|          59|   -6.046943|   -4.653753|   -4.788487|   -5.641103|
|          60|   -6.054807|   -4.650688|   -4.810648|   -5.635963|
|          61|   -6.059653|   -4.647482|   -4.837465|   -5.631821|
|          62|   -6.062257|   -4.644042|   -4.868049|   -5.628730|
|          63|   -6.063667|   -4.640242|   -4.900683|   -5.626668|
|          64|   -6.064907|   -4.635963|   -4.932576|   -5.625537|
|          65|   -6.066764|   -4.631130|   -4.960026|   -5.625201|
|          66|   -6.069686|   -4.625745|   -4.979250|   -5.625489|
|          67|   -6.073774|   -4.619893|   -4.987904|   -5.626215|
|          68|   -6.078822|   -4.613732|   -4.986180|   -5.627194|
|          69|   -6.084407|   -4.607475|   -4.976555|   -5.628320|
|          70|   -6.089995|   -4.601352|   -4.962361|   -5.629464|
|          71|   -6.095069|   -4.595582|   -4.946575|   -5.630500|
|          72|   -6.099250|   -4.590350|   -4.931146|   -5.631382|
|          73|   -6.102377|   -4.585781|   -4.917047|   -5.632043|
|          74|   -6.104534|   -4.581935|   -4.904661|   -5.632453|
|          75|   -6.106009|   -4.578801|   -4.893890|   -5.632572|
|          76|   -6.107204|   -4.576309|   -4.884568|   -5.632405|
|          77|   -6.108539|   -4.574339|   -4.876437|   -5.631927|
|          78|   -6.110352|   -4.572749|   -4.869445|   -5.631130|
|          79|   -6.112848|   -4.571384|   -4.863628|   -5.630023|
|          80|   -6.116071|   -4.570100|   -4.859151|   -5.628624|
|          81|   -6.119906|   -4.568781|   -4.856305|   -5.626993|
|          82|   -6.124117|   -4.567344|   -4.855343|   -5.625154|
|          83|   -6.128392|   -4.565753|   -4.856469|   -5.623175|
|          84|   -6.132412|   -4.564004|   -4.859780|   -5.621100|
|          85|   -6.135913|   -4.562125|   -4.865225|   -5.618983|
|          86|   -6.138735|   -4.560148|   -4.872572|   -5.616885|
|          87|   -6.140848|   -4.558109|   -4.881413|   -5.614839|
|          88|   -6.142345|   -4.556038|   -4.891202|   -5.612856|
|          89|   -6.143409|   -4.553960|   -4.901232|   -5.610954|
|          90|   -6.144265|   -4.551885|   -4.910769|   -5.609155|
|          91|   -6.145130|   -4.549823|   -4.919146|   -5.607458|
|          92|   -6.146171|   -4.547785|   -4.925813|   -5.605860|
|          93|   -6.147489|   -4.545784|   -4.930482|   -5.604356|
|          94|   -6.149104|   -4.543840|   -4.933106|   -5.602933|
|          95|   -6.150974|   -4.541978|   -4.933885|   -5.601582|
|          96|   -6.153011|   -4.540219|   -4.933176|   -5.600273|
|          97|   -6.155110|   -4.538578|   -4.931361|   -5.598983|
|          98|   -6.157172|   -4.537062|   -4.928780|   -5.597706|
|          99|   -6.159132|   -4.535660|   -4.925721|   -5.596432|
|         100|   -6.160963|   -4.534351|   -4.922356|   -5.595161|
|         101|   -6.162678|   -4.533106|   -4.918766|   -5.593872|
|         102|   -6.164328|   -4.531893|   -4.914953|   -5.592565|
|         103|   -6.165974|   -4.530676|   -4.910968|   -5.591230|
|         104|   -6.167681|   -4.529424|   -4.906825|   -5.589872|
|         105|   -6.169494|   -4.528114|   -4.902528|   -5.588503|
|         106|   -6.171431|   -4.526733|   -4.898147|   -5.587111|
|         107|   -6.173483|   -4.525281|   -4.893750|   -5.585708|
|         108|   -6.175614|   -4.523764|   -4.889375|   -5.584318|
|         109|   -6.177770|   -4.522193|   -4.885012|   -5.582928|
|         110|   -6.179892|   -4.520576|   -4.880595|   -5.581555|
|         111|   -6.181929|   -4.518917|   -4.876105|   -5.580172|
|         112|   -6.183847|   -4.517215|   -4.871433|   -5.578787|
|         113|   -6.185633|   -4.515461|   -4.866457|   -5.577414|
|         114|   -6.187295|   -4.513640|   -4.861009|   -5.576053|
|         115|   -6.188857|   -4.511737|   -4.855011|   -5.574679|
|         116|   -6.190353|   -4.509742|   -4.848584|   -5.573290|
|         117|   -6.191815|   -4.507636|   -4.841805|   -5.571886|
|         118|   -6.193266|   -4.505406|   -4.834823|   -5.570493|
|         119|   -6.194720|   -4.503044|   -4.827745|   -5.569070|
|         120|   -6.196174|   -4.500552|   -4.820742|   -5.567605|
|         121|   -6.197615|   -4.497947|   -4.813938|   -5.566079|
|         122|   -6.199024|   -4.495259|   -4.807423|   -5.564466|
|         123|   -6.200380|   -4.492532|   -4.801275|   -5.562753|
|         124|   -6.201665|   -4.489819|   -4.795504|   -5.560938|
|         125|   -6.202870|   -4.487174|   -4.790069|   -5.559044|
|         126|   -6.203995|   -4.484643|   -4.784929|   -5.557040|
|         127|   -6.205050|   -4.482257|   -4.780036|   -5.554869|
|         128|   -6.206049|   -4.480022|   -4.775343|   -5.552589|
|         129|   -6.207011|   -4.477930|   -4.770872|   -5.550358|
|         130|   -6.207951|   -4.475950|   -4.766666|   -5.547978|
|         131|   -6.208876|   -4.474053|   -4.762769|   -5.545461|
|         132|   -6.209785|   -4.472209|   -4.759243|   -5.542862|
|         133|   -6.210670|   -4.470401|   -4.756134|   -5.540249|
|         134|   -6.211519|   -4.468619|   -4.753463|   -5.537605|
|         135|   -6.212317|   -4.466863|   -4.751191|   -5.534992|
|         136|   -6.213053|   -4.465135|   -4.749278|   -5.532396|
|         137|   -6.213718|   -4.463444|   -4.747624|   -5.529775|
|         138|   -6.214309|   -4.461792|   -4.746111|   -5.527144|
|         139|   -6.214822|   -4.460184|   -4.744589|   -5.524522|
|         140|   -6.215262|   -4.458619|   -4.742906|   -5.521955|
|         141|   -6.215628|   -4.457091|   -4.740932|   -5.519296|
|         142|   -6.215920|   -4.455594|   -4.738546|   -5.516539|
|         143|   -6.216135|   -4.454120|   -4.735646|   -5.513795|
|         144|   -6.216268|   -4.452669|   -4.732174|   -5.511014|
|         145|   -6.216308|   -4.451240|   -4.728092|   -5.508219|
|         146|   -6.216246|   -4.449830|   -4.723197|   -5.505405|
|         147|   -6.216117|   -4.448442|   -4.717525|   -5.502674|
|         148|   -6.215963|   -4.447069|   -4.711189|   -5.499871|
|         149|   -6.215824|   -4.445702|   -4.704287|   -5.497071|
|         150|   -6.215749|   -4.444341|   -4.697076|   -5.494294|
|         151|   -6.215745|   -4.442983|   -4.689673|   -5.491633|
|         152|   -6.215810|   -4.441634|   -4.682167|   -5.489046|
|         153|   -6.215949|   -4.440307|   -4.674644|   -5.486503|
|         154|   -6.216162|   -4.439008|   -4.667108|   -5.484094|
|         155|   -6.216482|   -4.437741|   -4.659706|   -5.481753|
|         156|   -6.216921|   -4.436501|   -4.652524|   -5.479503|
|         157|   -6.217481|   -4.435277|   -4.645621|   -5.477372|
|         158|   -6.218154|   -4.434062|   -4.639015|   -5.475300|
|         159|   -6.218927|   -4.432846|   -4.632724|   -5.473312|
|         160|   -6.219784|   -4.431623|   -4.626747|   -5.471489|
|         161|   -6.220708|   -4.430393|   -4.621059|   -5.469804|
|         162|   -6.221691|   -4.429157|   -4.615645|   -5.468199|
|         163|   -6.222733|   -4.427917|   -4.610560|   -5.466671|
|         164|   -6.223815|   -4.426672|   -4.605794|   -5.465233|
|         165|   -6.224917|   -4.425430|   -4.601350|   -5.463869|
|         166|   -6.226019|   -4.424195|   -4.597236|   -5.462583|
|         167|   -6.227099|   -4.422974|   -4.593454|   -5.461385|
|         168|   -6.228136|   -4.421773|   -4.590005|   -5.460285|
|         169|   -6.229114|   -4.420600|   -4.586876|   -5.459295|
|         170|   -6.230024|   -4.419459|   -4.584007|   -5.458391|
|         171|   -6.230888|   -4.418357|   -4.581481|   -5.457577|
|         172|   -6.231701|   -4.417291|   -4.579299|   -5.456848|
|         173|   -6.232457|   -4.416280|   -4.577479|   -5.456213|
|         174|   -6.233147|   -4.415338|   -4.576020|   -5.455732|
|         175|   -6.233759|   -4.414468|   -4.574915|   -5.455345|
|         176|   -6.234294|   -4.413684|   -4.574176|   -5.455082|
|         177|   -6.234754|   -4.412991|   -4.573818|   -5.454931|
|         178|   -6.235144|   -4.412391|   -4.573846|   -5.454883|
|         179|   -6.235468|   -4.411886|   -4.574242|   -5.454970|
|         180|   -6.235739|   -4.411475|   -4.575000|   -5.455153|
|         181|   -6.235969|   -4.411151|   -4.576072|   -5.455454|
|         182|   -6.236172|   -4.410902|   -4.577400|   -5.455877|
|         183|   -6.236371|   -4.410718|   -4.578995|   -5.456407|
|         184|   -6.236569|   -4.410586|   -4.580808|   -5.457011|
|         185|   -6.236767|   -4.410498|   -4.582800|   -5.457661|
|         186|   -6.236956|   -4.410446|   -4.584923|   -5.458347|
|         187|   -6.237133|   -4.410421|   -4.587135|   -5.459053|
|         188|   -6.237294|   -4.410411|   -4.589398|   -5.459779|
|         189|   -6.237439|   -4.410409|   -4.591647|   -5.460512|
|         190|   -6.237569|   -4.410398|   -4.593823|   -5.461243|
|         191|   -6.237693|   -4.410357|   -4.595761|   -5.461973|
|         192|   -6.237855|   -4.410272|   -4.597538|   -5.462644|
|         193|   -6.238060|   -4.410127|   -4.599106|   -5.463333|
|         194|   -6.238305|   -4.409908|   -4.600456|   -5.463924|
|         195|   -6.238573|   -4.409612|   -4.601546|   -5.464536|
|         196|   -6.238856|   -4.409235|   -4.602352|   -5.465044|
|         197|   -6.239148|   -4.408775|   -4.602881|   -5.465556|
|         198|   -6.239443|   -4.408227|   -4.603114|   -5.465962|
|         199|   -6.239743|   -4.407592|   -4.603074|   -5.466321|
|         200|   -6.240051|   -4.406866|   -4.602788|   -5.466577|
|         201|   -6.240363|   -4.406050|   -4.602248|   -5.466719|
|         202|   -6.240685|   -4.405139|   -4.601494|   -5.466751|
|         203|   -6.241020|   -4.404139|   -4.600551|   -5.466640|
|         204|   -6.241365|   -4.403043|   -4.599435|   -5.466394|
|         205|   -6.241723|   -4.401849|   -4.598133|   -5.465986|
|         206|   -6.242103|   -4.400554|   -4.596597|   -5.465425|
|         207|   -6.242544|   -4.399165|   -4.594931|   -5.464648|
|         208|   -6.243049|   -4.397678|   -4.593162|   -5.463708|
|         209|   -6.243614|   -4.396103|   -4.591279|   -5.462524|
|         210|   -6.244243|   -4.394454|   -4.589320|   -5.461115|
|         211|   -6.244935|   -4.392744|   -4.587296|   -5.459476|
|         212|   -6.245691|   -4.390983|   -4.585189|   -5.457639|
|         213|   -6.246525|   -4.389171|   -4.583070|   -5.455639|
|         214|   -6.247435|   -4.387305|   -4.580936|   -5.453516|
|         215|   -6.248435|   -4.385379|   -4.578799|   -5.451325|
|         216|   -6.249537|   -4.383383|   -4.576666|   -5.449052|
|         217|   -6.250757|   -4.381313|   -4.574546|   -5.446694|
|         218|   -6.252104|   -4.379162|   -4.572442|   -5.444306|
|         219|   -6.253587|   -4.376933|   -4.570336|   -5.441940|
|         220|   -6.255216|   -4.374641|   -4.568213|   -5.439581|
|         221|   -6.257007|   -4.372307|   -4.566030|   -5.437220|
|         222|   -6.258983|   -4.369945|   -4.563832|   -5.434921|
|         223|   -6.261156|   -4.367568|   -4.561614|   -5.432704|
|         224|   -6.263526|   -4.365195|   -4.559397|   -5.430530|
|         225|   -6.266087|   -4.362845|   -4.557175|   -5.428476|
|         226|   -6.268833|   -4.360537|   -4.554959|   -5.426492|
|         227|   -6.271758|   -4.358292|   -4.552766|   -5.424670|
|         228|   -6.274860|   -4.356127|   -4.550586|   -5.422939|
|         229|   -6.278134|   -4.354059|   -4.548444|   -5.421385|
|         230|   -6.281577|   -4.352101|   -4.546354|   -5.419959|
|         231|   -6.285186|   -4.350270|   -4.544321|   -5.418733|
|         232|   -6.288955|   -4.348569|   -4.542376|   -5.417606|
|         233|   -6.292886|   -4.347008|   -4.540517|   -5.416677|
|         234|   -6.296988|   -4.345590|   -4.538752|   -5.415876|
|         235|   -6.301262|   -4.344317|   -4.537105|   -5.415302|
|         236|   -6.305709|   -4.343184|   -4.535596|   -5.414816|
|         237|   -6.310332|   -4.342191|   -4.534237|   -5.414539|
|         238|   -6.315133|   -4.341333|   -4.533040|   -5.414341|
|         239|   -6.320117|   -4.340606|   -4.532021|   -5.414387|
|         240|   -6.325290|   -4.340004|   -4.531196|   -5.414469|
|         241|   -6.330662|   -4.339517|   -4.530578|   -5.414748|
|         242|   -6.336238|   -4.339138|   -4.530185|   -5.415100|
|         243|   -6.342029|   -4.338855|   -4.530030|   -5.415554|
|         244|   -6.348037|   -4.338659|   -4.530125|   -5.416204|
|         245|   -6.354264|   -4.338535|   -4.530483|   -5.416778|
|         246|   -6.360712|   -4.338476|   -4.531109|   -5.417600|
|         247|   -6.367385|   -4.338469|   -4.532005|   -5.418321|
|         248|   -6.374281|   -4.338507|   -4.533175|   -5.419263|
|         249|   -6.381409|   -4.338581|   -4.534616|   -5.420142|
|         250|   -6.388759|   -4.338688|   -4.536330|   -5.421166|
|         251|   -6.396323|   -4.338824|   -4.538318|   -5.422238|
|         252|   -6.404105|   -4.338988|   -4.540569|   -5.423385|
|         253|   -6.412124|   -4.339177|   -4.543068|   -5.424565|
|         254|   -6.420352|   -4.339388|   -4.545814|   -5.425833|
|         255|   -6.428770|   -4.339621|   -4.548801|   -5.427195|
|         256|   -6.437343|   -4.339879|   -4.552021|   -5.428618|
|         257|   -6.446036|   -4.340164|   -4.555457|   -5.430107|
|         258|   -6.454812|   -4.340479|   -4.559095|   -5.431649|
|         259|   -6.463648|   -4.340825|   -4.562914|   -5.433276|
|         260|   -6.472506|   -4.341202|   -4.566897|   -5.434967|
|         261|   -6.481360|   -4.341608|   -4.571016|   -5.436668|
|         262|   -6.490165|   -4.342042|   -4.575243|   -5.438357|
|         263|   -6.498873|   -4.342503|   -4.579543|   -5.440062|
|         264|   -6.507447|   -4.342988|   -4.583876|   -5.441779|
|         265|   -6.515820|   -4.343491|   -4.588196|   -5.443519|
|         266|   -6.523952|   -4.344008|   -4.592455|   -5.445240|
|         267|   -6.531775|   -4.344530|   -4.596603|   -5.446894|
|         268|   -6.539240|   -4.345049|   -4.600587|   -5.448527|
|         269|   -6.546343|   -4.345556|   -4.604348|   -5.450126|
|         270|   -6.553002|   -4.346035|   -4.607827|   -5.451647|
|         271|   -6.559139|   -4.346476|   -4.610971|   -5.453076|
|         272|   -6.564704|   -4.346864|   -4.613722|   -5.454381|
|         273|   -6.569618|   -4.347187|   -4.616019|   -5.455531|
|         274|   -6.573842|   -4.347431|   -4.617800|   -5.456505|
|         275|   -6.577313|   -4.347579|   -4.619003|   -5.457280|
|         276|   -6.580005|   -4.347619|   -4.619570|   -5.457804|
|         277|   -6.581890|   -4.347533|   -4.619442|   -5.458089|
|         278|   -6.582943|   -4.347308|   -4.618567|   -5.458111|
|         279|   -6.583229|   -4.346930|   -4.616893|   -5.457844|
|         280|   -6.583106|   -4.346382|   -4.614351|   -5.457302|
|         281|   -6.582352|   -4.345666|   -4.610925|   -5.456424|
|         282|   -6.581072|   -4.344765|   -4.606659|   -5.455255|
|         283|   -6.579241|   -4.343678|   -4.601584|   -5.453829|
|         284|   -6.576796|   -4.342412|   -4.595724|   -5.452165|
|         285|   -6.573741|   -4.340976|   -4.589129|   -5.450332|
|         286|   -6.570224|   -4.339380|   -4.581855|   -5.448390|
|         287|   -6.566284|   -4.337648|   -4.573992|   -5.446367|
|         288|   -6.562010|   -4.335783|   -4.565676|   -5.444242|
|         289|   -6.557428|   -4.333804|   -4.557016|   -5.442177|
|         290|   -6.552552|   -4.331730|   -4.548118|   -5.440101|
|         291|   -6.547418|   -4.329586|   -4.539090|   -5.437944|
|         292|   -6.542061|   -4.327389|   -4.530022|   -5.435962|
|         293|   -6.536568|   -4.325164|   -4.520996|   -5.433932|
|         294|   -6.531091|   -4.322927|   -4.512080|   -5.432067|
|         295|   -6.525783|   -4.320699|   -4.503352|   -5.430319|
|         296|   -6.520676|   -4.318477|   -4.494899|   -5.428747|
|         297|   -6.515747|   -4.316273|   -4.486759|   -5.427302|
|         298|   -6.510970|   -4.314099|   -4.478967|   -5.426018|
|         299|   -6.506321|   -4.311973|   -4.471546|   -5.424881|
|         300|   -6.501777|   -4.309898|   -4.464528|   -5.423901|
|         301|   -6.497326|   -4.307892|   -4.457920|   -5.423038|
|         302|   -6.492976|   -4.305954|   -4.451756|   -5.422347|
|         303|   -6.488770|   -4.304100|   -4.446043|   -5.421779|
|         304|   -6.484774|   -4.302332|   -4.440796|   -5.421421|
|         305|   -6.481069|   -4.300664|   -4.436015|   -5.421175|
|         306|   -6.477613|   -4.299099|   -4.431716|   -5.421091|
|         307|   -6.474358|   -4.297651|   -4.427870|   -5.421117|
|         308|   -6.471252|   -4.296340|   -4.424468|   -5.421305|
|         309|   -6.468245|   -4.295178|   -4.421477|   -5.421562|
|         310|   -6.465339|   -4.294183|   -4.418875|   -5.421976|
|         311|   -6.462514|   -4.293364|   -4.416637|   -5.422483|
|         312|   -6.459774|   -4.292730|   -4.414731|   -5.423074|
|         313|   -6.457078|   -4.292285|   -4.413129|   -5.423811|
|         314|   -6.454471|   -4.292034|   -4.411794|   -5.424571|
|         315|   -6.451915|   -4.291983|   -4.410689|   -5.425474|
|         316|   -6.449408|   -4.292122|   -4.409793|   -5.426392|
|         317|   -6.446939|   -4.292463|   -4.409045|   -5.427395|
|         318|   -6.444507|   -4.292976|   -4.408458|   -5.428461|
|         319|   -6.442094|   -4.293680|   -4.407954|   -5.429595|
|         320|   -6.439681|   -4.294540|   -4.407553|   -5.430770|
|         321|   -6.437284|   -4.295542|   -4.407216|   -5.432000|
|         322|   -6.434867|   -4.296674|   -4.406924|   -5.433322|
|         323|   -6.432435|   -4.297894|   -4.406674|   -5.434668|
|         324|   -6.429986|   -4.299204|   -4.406419|   -5.436152|
|         325|   -6.427504|   -4.300554|   -4.406176|   -5.437557|
|         326|   -6.424979|   -4.301925|   -4.405928|   -5.439112|
|         327|   -6.422416|   -4.303300|   -4.405646|   -5.440607|
|         328|   -6.419824|   -4.304645|   -4.405348|   -5.442150|
|         329|   -6.417181|   -4.305953|   -4.405005|   -5.443708|
|         330|   -6.414518|   -4.307217|   -4.404618|   -5.445249|
|         331|   -6.411809|   -4.308419|   -4.404197|   -5.446800|
|         332|   -6.409086|   -4.309572|   -4.403730|   -5.448300|
|         333|   -6.406333|   -4.310678|   -4.403224|   -5.449811|
|         334|   -6.403562|   -4.311733|   -4.402700|   -5.451239|
|         335|   -6.400795|   -4.312769|   -4.402145|   -5.452699|
|         336|   -6.398022|   -4.313782|   -4.401585|   -5.454078|
|         337|   -6.395286|   -4.314793|   -4.401040|   -5.455451|
|         338|   -6.392560|   -4.315821|   -4.400506|   -5.456787|
|         339|   -6.389880|   -4.316869|   -4.400017|   -5.458091|
|         340|   -6.387266|   -4.317960|   -4.399569|   -5.459339|
|         341|   -6.384696|   -4.319099|   -4.399184|   -5.460526|
|         342|   -6.382188|   -4.320286|   -4.398883|   -5.461681|
|         343|   -6.379772|   -4.321531|   -4.398671|   -5.462723|
|         344|   -6.377461|   -4.322829|   -4.398567|   -5.463679|
|         345|   -6.375242|   -4.324182|   -4.398588|   -5.464523|
|         346|   -6.373093|   -4.325602|   -4.398730|   -5.465257|
|         347|   -6.371036|   -4.327084|   -4.399010|   -5.465856|
|         348|   -6.369088|   -4.328631|   -4.399435|   -5.466282|
|         349|   -6.367226|   -4.330243|   -4.400014|   -5.466549|
|         350|   -6.365454|   -4.331924|   -4.400746|   -5.466663|
|         351|   -6.363786|   -4.333668|   -4.401639|   -5.466639|
|         352|   -6.362217|   -4.335480|   -4.402686|   -5.466443|
|         353|   -6.360743|   -4.337351|   -4.403893|   -5.466085|
|         354|   -6.359348|   -4.339278|   -4.405254|   -5.465570|
|         355|   -6.358045|   -4.341256|   -4.406756|   -5.464890|
|         356|   -6.356838|   -4.343270|   -4.408398|   -5.464078|
|         357|   -6.355708|   -4.345314|   -4.410166|   -5.463153|
|         358|   -6.354644|   -4.347379|   -4.412047|   -5.462115|
|         359|   -6.353649|   -4.349456|   -4.414028|   -5.460980|
|         360|   -6.352727|   -4.351542|   -4.416065|   -5.459767|
|         361|   -6.352004|   -4.353608|   -4.418136|   -5.458484|
|         362|   -6.351582|   -4.355634|   -4.420232|   -5.457142|
|         363|   -6.351413|   -4.357616|   -4.422349|   -5.455738|
|         364|   -6.351383|   -4.359570|   -4.424477|   -5.454292|
|         365|   -6.351402|   -4.361516|   -4.426609|   -5.452809|
|         366|   -6.351430|   -4.363463|   -4.428741|   -5.451300|
|         367|   -6.351459|   -4.365413|   -4.430868|   -5.449773|
|         368|   -6.351493|   -4.367368|   -4.432983|   -5.448240|
|         369|   -6.351544|   -4.369327|   -4.435080|   -5.446698|
|         370|   -6.351619|   -4.371291|   -4.437155|   -5.445160|
|         371|   -6.351715|   -4.373259|   -4.439206|   -5.443629|
|         372|   -6.351830|   -4.375236|   -4.441229|   -5.442122|
|         373|   -6.351966|   -4.377217|   -4.443228|   -5.440634|
|         374|   -6.352119|   -4.379201|   -4.445206|   -5.439170|
|         375|   -6.352292|   -4.381184|   -4.447172|   -5.437743|
|         376|   -6.352484|   -4.383161|   -4.449140|   -5.436346|
|         377|   -6.352695|   -4.385126|   -4.451125|   -5.434982|
|         378|   -6.352925|   -4.387077|   -4.453144|   -5.433662|
|         379|   -6.353169|   -4.389007|   -4.455220|   -5.432380|
|         380|   -6.353424|   -4.390917|   -4.457372|   -5.431148|
|         381|   -6.353686|   -4.392803|   -4.459620|   -5.429958|
|         382|   -6.353949|   -4.394665|   -4.461980|   -5.428807|
|         383|   -6.354205|   -4.396506|   -4.464465|   -5.427711|
|         384|   -6.354445|   -4.398328|   -4.467044|   -5.426674|
|         385|   -6.354721|   -4.400119|   -4.469733|   -5.425701|
|         386|   -6.355048|   -4.401875|   -4.472528|   -5.424787|
|         387|   -6.355406|   -4.403597|   -4.475420|   -5.423916|
|         388|   -6.355771|   -4.405291|   -4.478393|   -5.423085|
|         389|   -6.356123|   -4.406959|   -4.481422|   -5.422292|
|         390|   -6.356446|   -4.408602|   -4.484483|   -5.421533|
|         391|   -6.356733|   -4.410214|   -4.487545|   -5.420806|
|         392|   -6.356976|   -4.411790|   -4.490575|   -5.420110|
|         393|   -6.357169|   -4.413320|   -4.493541|   -5.419449|
|         394|   -6.357303|   -4.414794|   -4.496414|   -5.418806|
|         395|   -6.357372|   -4.416198|   -4.499164|   -5.418178|
|         396|   -6.357372|   -4.417518|   -4.501771|   -5.417583|
|         397|   -6.357298|   -4.418737|   -4.504213|   -5.417011|
|         398|   -6.357151|   -4.419836|   -4.506472|   -5.416447|
|         399|   -6.356930|   -4.420799|   -4.508529|   -5.415900|
|         400|   -6.356636|   -4.421609|   -4.510361|   -5.415359|
|         401|   -6.356271|   -4.422251|   -4.511945|   -5.414810|
|         402|   -6.355834|   -4.422712|   -4.513248|   -5.414260|
|         403|   -6.355326|   -4.422979|   -4.514242|   -5.413716|
|         404|   -6.354747|   -4.423036|   -4.514888|   -5.413180|
|         405|   -6.354097|   -4.422872|   -4.515150|   -5.412644|
|         406|   -6.353376|   -4.422470|   -4.514991|   -5.412084|
|         407|   -6.352584|   -4.421813|   -4.514382|   -5.411480|
|         408|   -6.351722|   -4.420883|   -4.513296|   -5.410834|
|         409|   -6.350790|   -4.419663|   -4.511717|   -5.410145|
|         410|   -6.349789|   -4.418134|   -4.509633|   -5.409415|
|         411|   -6.348720|   -4.416282|   -4.507042|   -5.408635|
|         412|   -6.347588|   -4.414094|   -4.503946|   -5.407834|
|         413|   -6.346392|   -4.411558|   -4.500355|   -5.406984|
|         414|   -6.345131|   -4.408674|   -4.496193|   -5.406096|
|         415|   -6.343883|   -4.405433|   -4.491524|   -5.405173|
|         416|   -6.342677|   -4.401833|   -4.486408|   -5.404209|
|         417|   -6.341483|   -4.397884|   -4.480874|   -5.403193|
|         418|   -6.340265|   -4.393603|   -4.474939|   -5.402137|
|         419|   -6.339003|   -4.389011|   -4.468624|   -5.401039|
|         420|   -6.337687|   -4.384124|   -4.461946|   -5.399893|
|         421|   -6.336304|   -4.378963|   -4.454920|   -5.398713|
|         422|   -6.334848|   -4.373547|   -4.447564|   -5.397514|
|         423|   -6.333305|   -4.367899|   -4.439897|   -5.396253|
|         424|   -6.331660|   -4.362042|   -4.431941|   -5.394924|
|         425|   -6.329898|   -4.356004|   -4.423717|   -5.393544|
|         426|   -6.328013|   -4.349811|   -4.415258|   -5.392111|
|         427|   -6.325984|   -4.343493|   -4.406492|   -5.390654|
|         428|   -6.323975|   -4.337081|   -4.397539|   -5.389156|
|         429|   -6.321999|   -4.330575|   -4.388481|   -5.387574|
|         430|   -6.319999|   -4.323992|   -4.379364|   -5.385919|
|         431|   -6.317936|   -4.317365|   -4.370218|   -5.384190|
|         432|   -6.315791|   -4.310719|   -4.361071|   -5.382373|
|         433|   -6.313565|   -4.304070|   -4.351950|   -5.380484|
|         434|   -6.311250|   -4.297430|   -4.342870|   -5.378476|
|         435|   -6.308845|   -4.290813|   -4.333828|   -5.376366|
|         436|   -6.306371|   -4.284230|   -4.324833|   -5.374137|
|         437|   -6.303843|   -4.277687|   -4.315883|   -5.371774|
|         438|   -6.301300|   -4.271195|   -4.306965|   -5.369304|
|         439|   -6.298838|   -4.264761|   -4.298109|   -5.366710|
|         440|   -6.296457|   -4.258380|   -4.289343|   -5.364022|
|         441|   -6.294113|   -4.252064|   -4.280670|   -5.361208|
|         442|   -6.291781|   -4.245829|   -4.272097|   -5.358304|
|         443|   -6.289448|   -4.239691|   -4.263634|   -5.355345|
|         444|   -6.287115|   -4.233664|   -4.255286|   -5.352349|
|         445|   -6.284794|   -4.227761|   -4.247061|   -5.349350|
|         446|   -6.282499|   -4.221998|   -4.238962|   -5.346408|
|         447|   -6.280244|   -4.216392|   -4.230999|   -5.343522|
|         448|   -6.278042|   -4.210958|   -4.223182|   -5.340772|
|         449|   -6.275897|   -4.205712|   -4.215528|   -5.338154|
|         450|   -6.273801|   -4.200669|   -4.208054|   -5.335672|
|         451|   -6.271751|   -4.195839|   -4.200779|   -5.333377|
|         452|   -6.269760|   -4.191232|   -4.193726|   -5.331215|
|         453|   -6.267833|   -4.186859|   -4.186916|   -5.329168|
|         454|   -6.265981|   -4.182723|   -4.180372|   -5.327273|
|         455|   -6.264221|   -4.178833|   -4.174123|   -5.325508|
|         456|   -6.262555|   -4.175199|   -4.168188|   -5.323843|
|         457|   -6.260981|   -4.171826|   -4.162586|   -5.322258|
|         458|   -6.259502|   -4.168723|   -4.157343|   -5.320807|
|         459|   -6.258117|   -4.165890|   -4.152483|   -5.319548|
|         460|   -6.256821|   -4.163334|   -4.148018|   -5.318445|
|         461|   -6.255617|   -4.161060|   -4.143960|   -5.317503|
|         462|   -6.254511|   -4.159067|   -4.140329|   -5.316750|
|         463|   -6.253510|   -4.157355|   -4.137140|   -5.316166|
|         464|   -6.252613|   -4.155924|   -4.134400|   -5.315812|
|         465|   -6.251813|   -4.154776|   -4.132121|   -5.315666|
|         466|   -6.251111|   -4.153902|   -4.130320|   -5.315710|
|         467|   -6.250503|   -4.153306|   -4.129005|   -5.315923|
|         468|   -6.249979|   -4.152985|   -4.128184|   -5.316290|
|         469|   -6.249527|   -4.152932|   -4.127851|   -5.316825|
|         470|   -6.249316|   -4.153124|   -4.128010|   -5.317528|
|         471|   -6.249468|   -4.153542|   -4.128663|   -5.318325|
|         472|   -6.249928|   -4.154174|   -4.129819|   -5.319227|
|         473|   -6.250565|   -4.155021|   -4.131480|   -5.320228|
|         474|   -6.251257|   -4.156093|   -4.133644|   -5.321332|
|         475|   -6.251920|   -4.157393|   -4.136306|   -5.322515|
|         476|   -6.252535|   -4.158914|   -4.139417|   -5.323860|
|         477|   -6.253497|   -4.160578|   -4.142986|   -5.325310|
|         478|   -6.254815|   -4.162358|   -4.147008|   -5.326843|
|         479|   -6.256312|   -4.164263|   -4.151466|   -5.328461|
|         480|   -6.257847|   -4.166298|   -4.156301|   -5.330217|
|         481|   -6.259634|   -4.168410|   -4.161509|   -5.332077|
|         482|   -6.261622|   -4.170579|   -4.167078|   -5.334017|
|         483|   -6.263689|   -4.172794|   -4.172952|   -5.336069|
|         484|   -6.265974|   -4.175000|   -4.179111|   -5.338191|
|         485|   -6.268444|   -4.177172|   -4.185524|   -5.340367|
|         486|   -6.271029|   -4.179290|   -4.192141|   -5.342609|
|         487|   -6.273736|   -4.181319|   -4.198923|   -5.344893|
|         488|   -6.276527|   -4.183234|   -4.205826|   -5.347171|
|         489|   -6.279352|   -4.185010|   -4.212801|   -5.349437|
|         490|   -6.282174|   -4.186621|   -4.219798|   -5.351690|
|         491|   -6.284965|   -4.188037|   -4.226766|   -5.353895|
|         492|   -6.287708|   -4.189230|   -4.233647|   -5.356020|
|         493|   -6.290389|   -4.190177|   -4.240382|   -5.358059|
|         494|   -6.292994|   -4.190854|   -4.246907|   -5.360016|
|         495|   -6.295507|   -4.191244|   -4.253152|   -5.361860|
|         496|   -6.297914|   -4.191336|   -4.259043|   -5.363551|
|         497|   -6.300199|   -4.191119|   -4.264505|   -5.365069|
|         498|   -6.302350|   -4.190586|   -4.269465|   -5.366449|
|         499|   -6.304358|   -4.189732|   -4.273851|   -5.367660|
|         500|   -6.306215|   -4.188553|   -4.277596|   -5.368662|
|         501|   -6.307915|   -4.187049|   -4.280640|   -5.369471|
|         502|   -6.309454|   -4.185221|   -4.282931|   -5.370087|
|         503|   -6.310828|   -4.183073|   -4.284422|   -5.370530|
|         504|   -6.312033|   -4.180612|   -4.285079|   -5.370760|
|         505|   -6.313066|   -4.177851|   -4.284878|   -5.370774|
|         506|   -6.313924|   -4.174798|   -4.283811|   -5.370602|
|         507|   -6.314607|   -4.171471|   -4.281879|   -5.370265|
|         508|   -6.315112|   -4.167883|   -4.279098|   -5.369745|
|         509|   -6.315440|   -4.164055|   -4.275494|   -5.369069|
|         510|   -6.315592|   -4.160009|   -4.271102|   -5.368228|
|         511|   -6.315569|   -4.155770|   -4.265972|   -5.367248|
|         512|   -6.315376|   -4.151363|   -4.260159|   -5.366133|
|         513|   -6.315021|   -4.146815|   -4.253731|   -5.364871|
|         514|   -6.314510|   -4.142156|   -4.246764|   -5.363511|
|         515|   -6.313853|   -4.137412|   -4.239342|   -5.362014|
|         516|   -6.313062|   -4.132613|   -4.231552|   -5.360436|
|         517|   -6.312152|   -4.127787|   -4.223483|   -5.358731|
|         518|   -6.311139|   -4.122961|   -4.215222|   -5.356986|
|         519|   -6.310041|   -4.118162|   -4.206854|   -5.355142|
|         520|   -6.308874|   -4.113415|   -4.198462|   -5.353258|
|         521|   -6.307656|   -4.108746|   -4.190119|   -5.351286|
|         522|   -6.306397|   -4.104173|   -4.181892|   -5.349298|
|         523|   -6.305111|   -4.099716|   -4.173840|   -5.347228|
|         524|   -6.303809|   -4.095390|   -4.166011|   -5.345130|
|         525|   -6.302500|   -4.091208|   -4.158443|   -5.342974|
|         526|   -6.301190|   -4.087178|   -4.151169|   -5.340761|
|         527|   -6.299887|   -4.083306|   -4.144211|   -5.338490|
|         528|   -6.298595|   -4.079595|   -4.137583|   -5.336136|
|         529|   -6.297316|   -4.076045|   -4.131294|   -5.333801|
|         530|   -6.296051|   -4.072655|   -4.125345|   -5.331367|
|         531|   -6.294800|   -4.069421|   -4.119736|   -5.328952|
|         532|   -6.293567|   -4.066339|   -4.114457|   -5.326526|
|         533|   -6.292352|   -4.063404|   -4.109498|   -5.324076|
|         534|   -6.291160|   -4.060612|   -4.104843|   -5.321712|
|         535|   -6.289991|   -4.057958|   -4.100473|   -5.319380|
|         536|   -6.288848|   -4.055435|   -4.096365|   -5.317077|
|         537|   -6.287733|   -4.053038|   -4.092498|   -5.314912|
|         538|   -6.286648|   -4.050758|   -4.088847|   -5.312784|
|         539|   -6.285597|   -4.048588|   -4.085386|   -5.310720|
|         540|   -6.284582|   -4.046521|   -4.082089|   -5.308791|
|         541|   -6.283605|   -4.044548|   -4.078933|   -5.306930|
|         542|   -6.282668|   -4.042662|   -4.075893|   -5.305096|
|         543|   -6.281774|   -4.040858|   -4.072945|   -5.303394|
|         544|   -6.280925|   -4.039129|   -4.070070|   -5.301750|
|         545|   -6.280123|   -4.037467|   -4.067251|   -5.300104|
|         546|   -6.279372|   -4.035869|   -4.064473|   -5.298593|
|         547|   -6.278671|   -4.034329|   -4.061725|   -5.297127|
|         548|   -6.278021|   -4.032846|   -4.058998|   -5.295668|
|         549|   -6.277423|   -4.031417|   -4.056285|   -5.294261|
|         550|   -6.276877|   -4.030042|   -4.053581|   -5.292958|
|         551|   -6.276384|   -4.028721|   -4.050887|   -5.291650|
|         552|   -6.275944|   -4.027456|   -4.048204|   -5.290361|
|         553|   -6.275555|   -4.026248|   -4.045535|   -5.289160|
|         554|   -6.275217|   -4.025099|   -4.042885|   -5.287993|
|         555|   -6.274927|   -4.024010|   -4.040264|   -5.286810|
|         556|   -6.274687|   -4.022984|   -4.037679|   -5.285658|
|         557|   -6.274493|   -4.022020|   -4.035143|   -5.284551|
|         558|   -6.274346|   -4.021118|   -4.032667|   -5.283436|
|         559|   -6.274244|   -4.020275|   -4.030264|   -5.282332|
|         560|   -6.274187|   -4.019492|   -4.027945|   -5.281236|
|         561|   -6.274176|   -4.018767|   -4.025723|   -5.280141|
|         562|   -6.274208|   -4.018097|   -4.023607|   -5.279041|
|         563|   -6.274283|   -4.017480|   -4.021608|   -5.277963|
|         564|   -6.274400|   -4.016914|   -4.019734|   -5.276885|
|         565|   -6.274558|   -4.016392|   -4.017994|   -5.275833|
|         566|   -6.274755|   -4.015905|   -4.016393|   -5.274810|
|         567|   -6.274987|   -4.015446|   -4.014936|   -5.273801|
|         568|   -6.275252|   -4.015005|   -4.013625|   -5.272849|
|         569|   -6.275551|   -4.014573|   -4.012460|   -5.271942|
|         570|   -6.275886|   -4.014140|   -4.011442|   -5.271092|
|         571|   -6.276260|   -4.013698|   -4.010570|   -5.270308|
|         572|   -6.276676|   -4.013237|   -4.009840|   -5.269591|
|         573|   -6.277135|   -4.012746|   -4.009245|   -5.268948|
|         574|   -6.277639|   -4.012215|   -4.008776|   -5.268362|
|         575|   -6.278187|   -4.011633|   -4.008420|   -5.267838|
|         576|   -6.278783|   -4.010988|   -4.008164|   -5.267371|
|         577|   -6.279429|   -4.010271|   -4.007992|   -5.266955|
|         578|   -6.280126|   -4.009478|   -4.007894|   -5.266606|
|         579|   -6.280877|   -4.008605|   -4.007854|   -5.266314|
|         580|   -6.281683|   -4.007649|   -4.007860|   -5.266042|
|         581|   -6.282543|   -4.006608|   -4.007897|   -5.265839|
|         582|   -6.283458|   -4.005476|   -4.007952|   -5.265693|
|         583|   -6.284428|   -4.004251|   -4.008012|   -5.265572|
|         584|   -6.285451|   -4.002930|   -4.008064|   -5.265496|
|         585|   -6.286527|   -4.001512|   -4.008097|   -5.265430|
|         586|   -6.287653|   -3.999997|   -4.008100|   -5.265388|
|         587|   -6.288831|   -3.998387|   -4.008064|   -5.265373|
|         588|   -6.290057|   -3.996686|   -4.007981|   -5.265349|
|         589|   -6.291331|   -3.994898|   -4.007847|   -5.265342|
|         590|   -6.292647|   -3.993030|   -4.007660|   -5.265340|
|         591|   -6.294002|   -3.991090|   -4.007418|   -5.265295|
|         592|   -6.295391|   -3.989086|   -4.007120|   -5.265280|
|         593|   -6.296809|   -3.987023|   -4.006770|   -5.265243|
|         594|   -6.298252|   -3.984909|   -4.006371|   -5.265198|
|         595|   -6.299717|   -3.982750|   -4.005925|   -5.265142|
|         596|   -6.301201|   -3.980554|   -4.005435|   -5.265053|
|         597|   -6.302701|   -3.978331|   -4.004905|   -5.264993|
|         598|   -6.304216|   -3.976090|   -4.004339|   -5.264903|
|         599|   -6.305744|   -3.973838|   -4.003741|   -5.264786|
|         600|   -6.307282|   -3.971581|   -4.003117|   -5.264679|
|         601|   -6.308831|   -3.969325|   -4.002472|   -5.264541|
|         602|   -6.310389|   -3.967074|   -4.001814|   -5.264435|
|         603|   -6.311954|   -3.964830|   -4.001150|   -5.264248|
|         604|   -6.313526|   -3.962596|   -4.000487|   -5.264072|
|         605|   -6.315105|   -3.960373|   -3.999833|   -5.263913|
|         606|   -6.316692|   -3.958163|   -3.999197|   -5.263800|
|         607|   -6.318286|   -3.955966|   -3.998590|   -5.263721|
|         608|   -6.319887|   -3.953780|   -3.998023|   -5.263634|
|         609|   -6.321495|   -3.951604|   -3.997507|   -5.263561|
|         610|   -6.323111|   -3.949436|   -3.997053|   -5.263339|
|         611|   -6.324733|   -3.947272|   -3.996671|   -5.263253|
|         612|   -6.326363|   -3.945110|   -3.996370|   -5.263178|
|         613|   -6.328006|   -3.942947|   -3.996155|   -5.263117|
|         614|   -6.329663|   -3.940779|   -3.996031|   -5.263030|
|         615|   -6.331334|   -3.938601|   -3.995998|   -5.262930|
|         616|   -6.333018|   -3.936405|   -3.996058|   -5.262903|
|         617|   -6.334713|   -3.934184|   -3.996204|   -5.262850|
|         618|   -6.336413|   -3.931929|   -3.996428|   -5.262793|
|         619|   -6.338114|   -3.929633|   -3.996716|   -5.262696|
|         620|   -6.339807|   -3.927290|   -3.997048|   -5.262672|
|         621|   -6.341481|   -3.924893|   -3.997397|   -5.262667|
|         622|   -6.343121|   -3.922443|   -3.997731|   -5.262589|
|         623|   -6.344710|   -3.919941|   -3.998020|   -5.262579|
|         624|   -6.346222|   -3.917393|   -3.998226|   -5.262600|
|         625|   -6.347632|   -3.914812|   -3.998323|   -5.262578|
|         626|   -6.348910|   -3.912214|   -3.998294|   -5.262533|
|         627|   -6.350025|   -3.909623|   -3.998128|   -5.262558|
|         628|   -6.350951|   -3.907070|   -3.997839|   -5.262563|
|         629|   -6.351672|   -3.904590|   -3.997463|   -5.262630|
|         630|   -6.352193|   -3.902223|   -3.997060|   -5.262773|
|         631|   -6.352539|   -3.900012|   -3.996709|   -5.262913|
|         632|   -6.352767|   -3.898006|   -3.996506|   -5.263223|
|         633|   -6.352967|   -3.896249|   -3.996547|   -5.263593|
|         634|   -6.353250|   -3.894788|   -3.996908|   -5.264072|
|         635|   -6.353738|   -3.893667|   -3.997628|   -5.264714|
|         636|   -6.354550|   -3.892925|   -3.998703|   -5.265384|
|         637|   -6.355769|   -3.892595|   -4.000059|   -5.266204|
|         638|   -6.357427|   -3.892693|   -4.001582|   -5.267092|
|         639|   -6.359499|   -3.893209|   -4.003136|   -5.268018|
|         640|   -6.361911|   -3.894103|   -4.004609|   -5.268960|
|         641|   -6.364575|   -3.895302|   -4.005947|   -5.269963|
|         642|   -6.367409|   -3.896711|   -4.007160|   -5.270941|
|         643|   -6.370371|   -3.898234|   -4.008305|   -5.271938|
|         644|   -6.373423|   -3.899798|   -4.009423|   -5.272893|
|         645|   -6.376514|   -3.901374|   -4.010478|   -5.273839|
|         646|   -6.379522|   -3.902976|   -4.011319|   -5.274776|
|         647|   -6.382244|   -3.904649|   -4.011687|   -5.275689|
|         648|   -6.384403|   -3.906426|   -4.011281|   -5.276538|
|         649|   -6.385726|   -3.908299|   -4.009854|   -5.277332|
|         650|   -6.386023|   -3.910187|   -4.007297|   -5.277958|
|         651|   -6.385260|   -3.911939|   -4.003667|   -5.278489|
|         652|   -6.383568|   -3.913357|   -3.999157|   -5.278765|
|         653|   -6.381202|   -3.914241|   -3.994024|   -5.278855|
|         654|   -6.378452|   -3.914439|   -3.988513|   -5.278773|
|         655|   -6.375565|   -3.913883|   -3.982804|   -5.278506|
|         656|   -6.372697|   -3.912598|   -3.976996|   -5.278129|
|         657|   -6.369908|   -3.910690|   -3.971115|   -5.277620|
|         658|   -6.367194|   -3.908314|   -3.965148|   -5.277063|
|         659|   -6.364530|   -3.905645|   -3.959049|   -5.276515|
|         660|   -6.363024|   -3.902852|   -3.952839|   -5.275896|
|         661|   -6.362358|   -3.900021|   -3.946668|   -5.275269|
|         662|   -6.361840|   -3.897247|   -3.940647|   -5.274587|
|         663|   -6.361170|   -3.894609|   -3.934873|   -5.273833|
|         664|   -6.360425|   -3.892175|   -3.929449|   -5.273140|
|         665|   -6.359707|   -3.890000|   -3.924492|   -5.272455|
|         666|   -6.359029|   -3.888124|   -3.920103|   -5.271837|
|         667|   -6.358540|   -3.886575|   -3.916356|   -5.271257|
|         668|   -6.358371|   -3.885371|   -3.913306|   -5.270848|
|         669|   -6.358479|   -3.884517|   -3.910991|   -5.270558|
|         670|   -6.358806|   -3.884015|   -3.909410|   -5.270424|
|         671|   -6.359485|   -3.883863|   -3.908530|   -5.270417|
|         672|   -6.360651|   -3.884047|   -3.908301|   -5.270570|
|         673|   -6.362176|   -3.884540|   -3.908658|   -5.270772|
|         674|   -6.364190|   -3.885314|   -3.909501|   -5.271106|
|         675|   -6.367004|   -3.886334|   -3.910709|   -5.271515|
|         676|   -6.371054|   -3.887553|   -3.912162|   -5.271911|
|         677|   -6.375711|   -3.888897|   -3.913792|   -5.272304|
|         678|   -6.380464|   -3.890314|   -3.915486|   -5.272654|
|         679|   -6.385177|   -3.891764|   -3.917130|   -5.272931|
|         680|   -6.389827|   -3.893210|   -3.918627|   -5.273120|
|         681|   -6.394332|   -3.894625|   -3.919908|   -5.273183|
|         682|   -6.398589|   -3.895981|   -3.920921|   -5.273123|
|         683|   -6.402535|   -3.897256|   -3.921630|   -5.272983|
|         684|   -6.406148|   -3.898429|   -3.922016|   -5.272687|
|         685|   -6.409417|   -3.899482|   -3.922077|   -5.272263|
|         686|   -6.412342|   -3.900395|   -3.921823|   -5.271706|
|         687|   -6.414944|   -3.901154|   -3.921273|   -5.270969|
|         688|   -6.417266|   -3.901743|   -3.920452|   -5.270154|
|         689|   -6.419359|   -3.902148|   -3.919392|   -5.269236|
|         690|   -6.421260|   -3.902357|   -3.918122|   -5.268216|
|         691|   -6.423014|   -3.902358|   -3.916671|   -5.267009|
|         692|   -6.424667|   -3.902143|   -3.915068|   -5.265666|
|         693|   -6.426253|   -3.901712|   -3.913337|   -5.264238|
|         694|   -6.427786|   -3.901067|   -3.911495|   -5.262708|
|         695|   -6.429268|   -3.900217|   -3.909555|   -5.261090|
|         696|   -6.430696|   -3.899173|   -3.907524|   -5.259358|
|         697|   -6.432049|   -3.897961|   -3.905395|   -5.257508|
|         698|   -6.433287|   -3.896603|   -3.903171|   -5.255577|
|         699|   -6.434383|   -3.895134|   -3.900847|   -5.253557|
|         700|   -6.435286|   -3.893590|   -3.898410|   -5.251577|
|         701|   -6.435943|   -3.892010|   -3.895849|   -5.249489|
|         702|   -6.436301|   -3.890422|   -3.893158|   -5.247440|
|         703|   -6.436324|   -3.888851|   -3.890342|   -5.245259|
|         704|   -6.436248|   -3.887333|   -3.887399|   -5.243129|
|         705|   -6.436116|   -3.885875|   -3.884353|   -5.240961|
|         706|   -6.435797|   -3.884473|   -3.881237|   -5.238804|
|         707|   -6.435174|   -3.883120|   -3.878091|   -5.236570|
|         708|   -6.434229|   -3.881813|   -3.874947|   -5.234261|
|         709|   -6.432972|   -3.880546|   -3.871848|   -5.231989|
|         710|   -6.431450|   -3.879300|   -3.868842|   -5.229717|
|         711|   -6.429759|   -3.878059|   -3.865987|   -5.227456|
|         712|   -6.428007|   -3.876812|   -3.863333|   -5.225178|
|         713|   -6.426318|   -3.875555|   -3.860921|   -5.223020|
|         714|   -6.424879|   -3.874284|   -3.858786|   -5.220903|
|         715|   -6.424018|   -3.873003|   -3.856972|   -5.218875|
|         716|   -6.423698|   -3.871712|   -3.855507|   -5.216886|
|         717|   -6.423799|   -3.870425|   -3.854393|   -5.215092|
|         718|   -6.424208|   -3.869162|   -3.853623|   -5.213403|
|         719|   -6.424843|   -3.867939|   -3.853182|   -5.211827|
|         720|   -6.425636|   -3.866775|   -3.853041|   -5.210418|
|         721|   -6.426536|   -3.865692|   -3.853166|   -5.209148|
|         722|   -6.427472|   -3.864705|   -3.853520|   -5.207992|
|         723|   -6.428389|   -3.863824|   -3.854050|   -5.206977|
|         724|   -6.429240|   -3.863055|   -3.854708|   -5.206115|
|         725|   -6.429996|   -3.862386|   -3.855449|   -5.205314|
|         726|   -6.430671|   -3.861805|   -3.856225|   -5.204653|
|         727|   -6.431291|   -3.861286|   -3.856990|   -5.204065|
|         728|   -6.431861|   -3.860793|   -3.857708|   -5.203613|
|         729|   -6.432401|   -3.860289|   -3.858341|   -5.203301|
|         730|   -6.432927|   -3.859741|   -3.858856|   -5.202998|
|         731|   -6.433396|   -3.859109|   -3.859228|   -5.202886|
|         732|   -6.433758|   -3.858361|   -3.859435|   -5.202764|
|         733|   -6.433956|   -3.857479|   -3.859457|   -5.202697|
|         734|   -6.433892|   -3.856449|   -3.859279|   -5.202833|
|         735|   -6.433456|   -3.855266|   -3.858890|   -5.202909|
|         736|   -6.432556|   -3.853942|   -3.858282|   -5.203044|
|         737|   -6.431131|   -3.852498|   -3.857457|   -5.203358|
|         738|   -6.429174|   -3.850963|   -3.856426|   -5.203661|
|         739|   -6.426822|   -3.849379|   -3.855214|   -5.203880|
|         740|   -6.424184|   -3.847790|   -3.853865|   -5.204221|
|         741|   -6.421384|   -3.846243|   -3.852434|   -5.204587|
|         742|   -6.418682|   -3.844787|   -3.850988|   -5.204924|
|         743|   -6.416237|   -3.843468|   -3.849603|   -5.205276|
|         744|   -6.414106|   -3.842332|   -3.848341|   -5.205633|
|         745|   -6.412328|   -3.841422|   -3.847255|   -5.206008|
|         746|   -6.410888|   -3.840776|   -3.846371|   -5.206421|
|         747|   -6.409601|   -3.840422|   -3.845690|   -5.206907|
|         748|   -6.408251|   -3.840383|   -3.845190|   -5.207432|
|         749|   -6.406667|   -3.840652|   -3.844846|   -5.208046|
|         750|   -6.404757|   -3.841207|   -3.844640|   -5.208666|
|         751|   -6.402461|   -3.841996|   -3.844579|   -5.209374|
|         752|   -6.399845|   -3.842950|   -3.844699|   -5.210112|
|         753|   -6.397064|   -3.843987|   -3.845068|   -5.210893|
|         754|   -6.394424|   -3.845022|   -3.845771|   -5.211597|
|         755|   -6.392262|   -3.845985|   -3.846897|   -5.212259|
|         756|   -6.390761|   -3.846831|   -3.848510|   -5.212937|
|         757|   -6.390060|   -3.847544|   -3.850645|   -5.213519|
|         758|   -6.390255|   -3.848132|   -3.853313|   -5.214055|
|         759|   -6.391413|   -3.848637|   -3.856487|   -5.214566|
|         760|   -6.393630|   -3.849128|   -3.860107|   -5.214975|
|         761|   -6.397060|   -3.849694|   -3.864084|   -5.215310|
|         762|   -6.401670|   -3.850433|   -3.868286|   -5.215507|
|         763|   -6.407311|   -3.851433|   -3.872535|   -5.215584|
|         764|   -6.413880|   -3.852743|   -3.876621|   -5.215523|
|         765|   -6.421122|   -3.854369|   -3.880331|   -5.215266|
|         766|   -6.428294|   -3.856258|   -3.883452|   -5.214825|
|         767|   -6.434674|   -3.858297|   -3.885835|   -5.214240|
|         768|   -6.439760|   -3.860325|   -3.887427|   -5.213522|
|         769|   -6.443365|   -3.862162|   -3.888272|   -5.212641|
|         770|   -6.445590|   -3.863647|   -3.888496|   -5.211675|
|         771|   -6.446747|   -3.864669|   -3.888268|   -5.210694|
|         772|   -6.447228|   -3.865189|   -3.887751|   -5.209787|
|         773|   -6.447419|   -3.865244|   -3.887078|   -5.208931|
|         774|   -6.447583|   -3.864934|   -3.886338|   -5.208122|
|         775|   -6.447859|   -3.864394|   -3.885586|   -5.207431|
|         776|   -6.448256|   -3.863765|   -3.884844|   -5.206883|
|         777|   -6.448784|   -3.863166|   -3.884121|   -5.206458|
|         778|   -6.449442|   -3.862671|   -3.883429|   -5.206138|
|         779|   -6.450262|   -3.862310|   -3.882772|   -5.205825|
|         780|   -6.451261|   -3.862064|   -3.882157|   -5.205538|
|         781|   -6.452474|   -3.861884|   -3.881587|   -5.205282|
|         782|   -6.453927|   -3.861703|   -3.881064|   -5.205128|
|         783|   -6.455674|   -3.861448|   -3.880585|   -5.204999|
|         784|   -6.457739|   -3.861058|   -3.880139|   -5.204906|
|         785|   -6.460037|   -3.860482|   -3.879711|   -5.204812|
|         786|   -6.462415|   -3.859683|   -3.879275|   -5.204687|
|         787|   -6.464684|   -3.858636|   -3.878805|   -5.204542|
|         788|   -6.466681|   -3.857333|   -3.878275|   -5.204331|
|         789|   -6.468303|   -3.855777|   -3.877678|   -5.204175|
|         790|   -6.469573|   -3.853987|   -3.877028|   -5.203990|
|         791|   -6.470591|   -3.852000|   -3.876358|   -5.203834|
|         792|   -6.471521|   -3.849865|   -3.875706|   -5.203684|
|         793|   -6.472510|   -3.847649|   -3.875089|   -5.203656|
|         794|   -6.473588|   -3.845433|   -3.874498|   -5.203572|
|         795|   -6.474657|   -3.843303|   -3.873883|   -5.203720|
|         796|   -6.475438|   -3.841340|   -3.873177|   -5.203763|
|         797|   -6.475653|   -3.839613|   -3.872319|   -5.203981|
|         798|   -6.475049|   -3.838157|   -3.871288|   -5.204144|
|         799|   -6.473532|   -3.836977|   -3.870116|   -5.204401|
|         800|   -6.471215|   -3.836040|   -3.868904|   -5.204590|
|         801|   -6.468310|   -3.835287|   -3.867789|   -5.204847|
|         802|   -6.465223|   -3.834654|   -3.866916|   -5.205097|
|         803|   -6.462338|   -3.834081|   -3.866407|   -5.205349|
|         804|   -6.459753|   -3.833529|   -3.866335|   -5.205565|
|         805|   -6.457531|   -3.832980|   -3.866713|   -5.205715|
|         806|   -6.455738|   -3.832440|   -3.867506|   -5.205850|
|         807|   -6.454520|   -3.831921|   -3.868658|   -5.205909|
|         808|   -6.453957|   -3.831440|   -3.870093|   -5.205902|
|         809|   -6.454129|   -3.831014|   -3.871734|   -5.205816|
|         810|   -6.455096|   -3.830658|   -3.873510|   -5.205641|
|         811|   -6.456842|   -3.830377|   -3.875359|   -5.205407|
|         812|   -6.459377|   -3.830168|   -3.877226|   -5.205082|
|         813|   -6.462628|   -3.830019|   -3.879068|   -5.204679|
|         814|   -6.466465|   -3.829908|   -3.880839|   -5.204154|
|         815|   -6.470828|   -3.829809|   -3.882499|   -5.203549|
|         816|   -6.475588|   -3.829696|   -3.884002|   -5.202798|
|         817|   -6.480598|   -3.829543|   -3.885291|   -5.201966|
|         818|   -6.485754|   -3.829324|   -3.886311|   -5.200984|
|         819|   -6.490975|   -3.829014|   -3.887002|   -5.199904|
|         820|   -6.496132|   -3.828588|   -3.887306|   -5.198659|
|         821|   -6.501017|   -3.828021|   -3.887164|   -5.197315|
|         822|   -6.505442|   -3.827282|   -3.886532|   -5.195812|
|         823|   -6.509184|   -3.826339|   -3.885371|   -5.194211|
|         824|   -6.512025|   -3.825157|   -3.883660|   -5.192509|
|         825|   -6.513724|   -3.823701|   -3.881403|   -5.190698|
|         826|   -6.514082|   -3.821939|   -3.878622|   -5.188820|
|         827|   -6.512976|   -3.819847|   -3.875357|   -5.186887|
|         828|   -6.510393|   -3.817418|   -3.871666|   -5.184899|
|         829|   -6.506403|   -3.814662|   -3.867615|   -5.182925|
|         830|   -6.501194|   -3.811609|   -3.863277|   -5.180947|
|         831|   -6.494993|   -3.808304|   -3.858733|   -5.179005|
|         832|   -6.488033|   -3.804807|   -3.854061|   -5.177132|
|         833|   -6.480538|   -3.801181|   -3.849332|   -5.175286|
|         834|   -6.472724|   -3.797496|   -3.844608|   -5.173579|
|         835|   -6.464767|   -3.793813|   -3.839938|   -5.171936|
|         836|   -6.456813|   -3.790188|   -3.835360|   -5.170398|
|         837|   -6.448998|   -3.786666|   -3.830903|   -5.168999|
|         838|   -6.441364|   -3.783279|   -3.826579|   -5.167655|
|         839|   -6.433904|   -3.780051|   -3.822391|   -5.166481|
|         840|   -6.426686|   -3.776998|   -3.818325|   -5.165420|
|         841|   -6.419865|   -3.774127|   -3.814370|   -5.164441|
|         842|   -6.413330|   -3.771427|   -3.810504|   -5.163610|
|         843|   -6.406940|   -3.768886|   -3.806683|   -5.162898|
|         844|   -6.400680|   -3.766484|   -3.802861|   -5.162305|
|         845|   -6.394503|   -3.764192|   -3.798985|   -5.161818|
|         846|   -6.388334|   -3.761980|   -3.794998|   -5.161405|
|         847|   -6.382172|   -3.759826|   -3.790838|   -5.161143|
|         848|   -6.376120|   -3.757709|   -3.786448|   -5.160970|
|         849|   -6.370172|   -3.755618|   -3.781787|   -5.160860|
|         850|   -6.364331|   -3.753561|   -3.776803|   -5.160897|
|         851|   -6.358622|   -3.751557|   -3.771462|   -5.160993|
|         852|   -6.353119|   -3.749636|   -3.765752|   -5.161147|
|         853|   -6.347813|   -3.747837|   -3.759676|   -5.161361|
|         854|   -6.342680|   -3.746205|   -3.753267|   -5.161600|
|         855|   -6.337766|   -3.744789|   -3.746594|   -5.161881|
|         856|   -6.333111|   -3.743634|   -3.739749|   -5.162127|
|         857|   -6.328731|   -3.742767|   -3.732837|   -5.162297|
|         858|   -6.324567|   -3.742210|   -3.725966|   -5.162416|
|         859|   -6.320602|   -3.741964|   -3.719248|   -5.162493|
|         860|   -6.316850|   -3.742018|   -3.712776|   -5.162478|
|         861|   -6.313349|   -3.742356|   -3.706634|   -5.162409|
|         862|   -6.310062|   -3.742952|   -3.700889|   -5.162218|
|         863|   -6.307009|   -3.743771|   -3.695595|   -5.161977|
|         864|   -6.304117|   -3.744781|   -3.690773|   -5.161720|
|         865|   -6.301307|   -3.745945|   -3.686430|   -5.161265|
|         866|   -6.298567|   -3.747232|   -3.682552|   -5.160785|
|         867|   -6.295857|   -3.748616|   -3.679111|   -5.160298|
|         868|   -6.293183|   -3.750081|   -3.676087|   -5.159637|
|         869|   -6.290525|   -3.751612|   -3.673454|   -5.159010|
|         870|   -6.287837|   -3.753181|   -3.671190|   -5.158337|
|         871|   -6.285138|   -3.754751|   -3.669278|   -5.157599|
|         872|   -6.282453|   -3.756283|   -3.667698|   -5.156941|
|         873|   -6.279808|   -3.757749|   -3.666440|   -5.156253|
|         874|   -6.277190|   -3.759130|   -3.665500|   -5.155643|
|         875|   -6.274591|   -3.760407|   -3.664881|   -5.155094|
|         876|   -6.271986|   -3.761561|   -3.664589|   -5.154643|
|         877|   -6.269372|   -3.762570|   -3.664636|   -5.154309|
|         878|   -6.266767|   -3.763428|   -3.665032|   -5.154158|
|         879|   -6.264231|   -3.764142|   -3.665790|   -5.154159|
|         880|   -6.261759|   -3.764721|   -3.666913|   -5.154315|
|         881|   -6.259308|   -3.765180|   -3.668391|   -5.154658|
|         882|   -6.256826|   -3.765531|   -3.670192|   -5.155118|
|         883|   -6.254285|   -3.765782|   -3.672271|   -5.155694|
|         884|   -6.251689|   -3.765944|   -3.674584|   -5.156444|
|         885|   -6.249062|   -3.766031|   -3.677101|   -5.157309|
|         886|   -6.246457|   -3.766069|   -3.679810|   -5.158427|
|         887|   -6.244016|   -3.766088|   -3.682710|   -5.159717|
|         888|   -6.241736|   -3.766116|   -3.685801|   -5.161078|
|         889|   -6.239564|   -3.766172|   -3.689066|   -5.162532|
|         890|   -6.237467|   -3.766262|   -3.692479|   -5.164083|
|         891|   -6.235466|   -3.766390|   -3.696018|   -5.165749|
|         892|   -6.233594|   -3.766568|   -3.699667|   -5.167438|
|         893|   -6.231896|   -3.766808|   -3.703419|   -5.169194|
|         894|   -6.230408|   -3.767125|   -3.707267|   -5.171099|
|         895|   -6.229135|   -3.767533|   -3.711198|   -5.173036|
|         896|   -6.228063|   -3.768041|   -3.715186|   -5.175078|
|         897|   -6.227155|   -3.768656|   -3.719195|   -5.177207|
|         898|   -6.226365|   -3.769379|   -3.723189|   -5.179382|
|         899|   -6.225693|   -3.770214|   -3.727129|   -5.181647|
|         900|   -6.225124|   -3.771168|   -3.730988|   -5.183978|
|         901|   -6.224594|   -3.772249|   -3.734739|   -5.186428|
|         902|   -6.224026|   -3.773466|   -3.738366|   -5.188925|
|         903|   -6.223367|   -3.774814|   -3.741856|   -5.191499|
|         904|   -6.222599|   -3.776285|   -3.745196|   -5.194060|
|         905|   -6.222126|   -3.777855|   -3.748358|   -5.196618|
|         906|   -6.222619|   -3.779498|   -3.751328|   -5.199109|
|         907|   -6.223905|   -3.781201|   -3.754117|   -5.201543|
|         908|   -6.225547|   -3.782964|   -3.756743|   -5.203925|
|         909|   -6.227138|   -3.784781|   -3.759231|   -5.206258|
|         910|   -6.228464|   -3.786639|   -3.761596|   -5.208540|
|         911|   -6.229452|   -3.788526|   -3.763842|   -5.210703|
|         912|   -6.230063|   -3.790438|   -3.765970|   -5.212810|
|         913|   -6.230363|   -3.792378|   -3.767983|   -5.214784|
|         914|   -6.230470|   -3.794349|   -3.769894|   -5.216709|
|         915|   -6.230466|   -3.796345|   -3.771720|   -5.218520|
|         916|   -6.230352|   -3.798362|   -3.773479|   -5.220224|
|         917|   -6.230124|   -3.800399|   -3.775190|   -5.221827|
|         918|   -6.229843|   -3.802453|   -3.776869|   -5.223304|
|         919|   -6.229517|   -3.804521|   -3.778532|   -5.224662|
|         920|   -6.229122|   -3.806600|   -3.780192|   -5.225864|
|         921|   -6.228683|   -3.808684|   -3.781857|   -5.226947|
|         922|   -6.228201|   -3.810766|   -3.783534|   -5.227825|
|         923|   -6.227662|   -3.812835|   -3.785227|   -5.228571|
|         924|   -6.227042|   -3.814883|   -3.786936|   -5.229101|
|         925|   -6.226356|   -3.816898|   -3.788659|   -5.229464|
|         926|   -6.225598|   -3.818869|   -3.790393|   -5.229626|
|         927|   -6.224744|   -3.820787|   -3.792134|   -5.229577|
|         928|   -6.223753|   -3.822647|   -3.793880|   -5.229378|
|         929|   -6.222661|   -3.824453|   -3.795631|   -5.228948|
|         930|   -6.221459|   -3.826219|   -3.797387|   -5.228415|
|         931|   -6.220150|   -3.827961|   -3.799152|   -5.227685|
|         932|   -6.218699|   -3.829695|   -3.800932|   -5.226849|
|         933|   -6.217142|   -3.831429|   -3.802739|   -5.225919|
|         934|   -6.215542|   -3.833164|   -3.804578|   -5.224912|
|         935|   -6.214157|   -3.834893|   -3.806445|   -5.223908|
|         936|   -6.213467|   -3.836598|   -3.808345|   -5.222831|
|         937|   -6.213397|   -3.838274|   -3.810294|   -5.221769|
|         938|   -6.213859|   -3.839929|   -3.812287|   -5.220680|
|         939|   -6.214669|   -3.841579|   -3.814326|   -5.219582|
|         940|   -6.215612|   -3.843237|   -3.816413|   -5.218532|
|         941|   -6.216517|   -3.844908|   -3.818548|   -5.217506|
|         942|   -6.217275|   -3.846590|   -3.820733|   -5.216566|
|         943|   -6.217868|   -3.848274|   -3.822966|   -5.215702|
|         944|   -6.218338|   -3.849954|   -3.825244|   -5.214936|
|         945|   -6.218730|   -3.851623|   -3.827562|   -5.214294|
|         946|   -6.219070|   -3.853279|   -3.829911|   -5.213784|
|         947|   -6.219394|   -3.854915|   -3.832285|   -5.213431|
|         948|   -6.219734|   -3.856521|   -3.834683|   -5.213219|
|         949|   -6.220096|   -3.858089|   -3.837108|   -5.213184|
|         950|   -6.220476|   -3.859616|   -3.839556|   -5.213300|
|         951|   -6.220871|   -3.861096|   -3.842024|   -5.213546|
|         952|   -6.221276|   -3.862513|   -3.844511|   -5.213964|
|         953|   -6.221698|   -3.863845|   -3.847016|   -5.214519|
|         954|   -6.222110|   -3.865076|   -3.849528|   -5.215246|
|         955|   -6.222512|   -3.866194|   -3.852028|   -5.216140|
|         956|   -6.222892|   -3.867194|   -3.854494|   -5.217195|
|         957|   -6.223266|   -3.868075|   -3.856906|   -5.218398|
|         958|   -6.223637|   -3.868834|   -3.859249|   -5.219770|
|         959|   -6.223992|   -3.869467|   -3.861510|   -5.221285|
|         960|   -6.224354|   -3.869965|   -3.863681|   -5.222944|
|         961|   -6.224748|   -3.870318|   -3.865756|   -5.224751|
|         962|   -6.225192|   -3.870517|   -3.867726|   -5.226691|
|         963|   -6.225693|   -3.870556|   -3.869587|   -5.228752|
|         964|   -6.226228|   -3.870433|   -3.871329|   -5.230925|
|         965|   -6.226775|   -3.870149|   -3.872947|   -5.233140|
|         966|   -6.227325|   -3.869705|   -3.874438|   -5.235430|
|         967|   -6.227865|   -3.869109|   -3.875803|   -5.237737|
|         968|   -6.228397|   -3.868374|   -3.877044|   -5.240048|
|         969|   -6.228916|   -3.867515|   -3.878164|   -5.242296|
|         970|   -6.229429|   -3.866547|   -3.879174|   -5.244480|
|         971|   -6.229944|   -3.865494|   -3.880080|   -5.246562|
|         972|   -6.230488|   -3.864382|   -3.880887|   -5.248514|
|         973|   -6.231073|   -3.863239|   -3.881600|   -5.250319|
|         974|   -6.231694|   -3.862094|   -3.882229|   -5.251956|
|         975|   -6.232321|   -3.860979|   -3.882784|   -5.253422|
|         976|   -6.232901|   -3.859930|   -3.883274|   -5.254715|
|         977|   -6.233404|   -3.858985|   -3.883707|   -5.255833|
|         978|   -6.233806|   -3.858182|   -3.884091|   -5.256792|
|         979|   -6.234080|   -3.857557|   -3.884438|   -5.257604|
|         980|   -6.234188|   -3.857145|   -3.884762|   -5.258266|
|         981|   -6.234070|   -3.856977|   -3.885059|   -5.258833|
[...]
|        3901|   -4.825955|   -2.251242|   -2.347310|   -4.647523|
|        3902|   -4.818377|   -2.239640|   -2.336687|   -4.648078|
|        3903|   -4.810505|   -2.227916|   -2.325815|   -4.648692|
|        3904|   -4.802355|   -2.216125|   -2.314752|   -4.649359|
|        3905|   -4.793947|   -2.204324|   -2.303554|   -4.650071|
|        3906|   -4.785304|   -2.192571|   -2.292268|   -4.650822|
|        3907|   -4.776448|   -2.180918|   -2.280939|   -4.651595|
|        3908|   -4.767404|   -2.169411|   -2.269603|   -4.652357|
|        3909|   -4.758187|   -2.158086|   -2.258287|   -4.653088|
|        3910|   -4.748813|   -2.146965|   -2.247006|   -4.653772|
|        3911|   -4.739276|   -2.136062|   -2.235769|   -4.654396|
|        3912|   -4.729559|   -2.125377|   -2.224574|   -4.654945|
|        3913|   -4.719650|   -2.114892|   -2.213414|   -4.655409|
|        3914|   -4.709511|   -2.104581|   -2.202277|   -4.655765|
|        3915|   -4.699103|   -2.094405|   -2.191147|   -4.656010|
|        3916|   -4.688398|   -2.084318|   -2.180005|   -4.656138|
|        3917|   -4.677353|   -2.074263|   -2.168827|   -4.656140|
|        3918|   -4.665932|   -2.064171|   -2.157587|   -4.656008|
|        3919|   -4.654098|   -2.053980|   -2.146265|   -4.655740|
|        3920|   -4.641759|   -2.043618|   -2.134848|   -4.655289|
|        3921|   -4.628884|   -2.033028|   -2.123332|   -4.654629|
|        3922|   -4.615506|   -2.022182|   -2.111716|   -4.653722|
|        3923|   -4.601563|   -2.011053|   -2.100016|   -4.652502|
|        3924|   -4.587020|   -1.999640|   -2.088275|   -4.650916|
|        3925|   -4.571971|   -1.987977|   -2.076534|   -4.648927|
|        3926|   -4.556481|   -1.976103|   -2.064846|   -4.646502|
|        3927|   -4.540608|   -1.964064|   -2.053276|   -4.643638|
|        3928|   -4.524372|   -1.951917|   -2.041907|   -4.640351|
|        3929|   -4.507809|   -1.939739|   -2.030808|   -4.636705|
|        3930|   -4.490822|   -1.927594|   -2.020032|   -4.632808|
|        3931|   -4.473163|   -1.915546|   -2.009628|   -4.628922|
|        3932|   -4.454471|   -1.903622|   -1.999617|   -4.625235|
|        3933|   -4.434162|   -1.891795|   -1.989943|   -4.621965|
|        3934|   -4.411440|   -1.879886|   -1.980464|   -4.619198|
|        3935|   -4.385779|   -1.867494|   -1.970824|   -4.616969|
|        3936|   -4.342191|   -1.838196|   -1.943519|   -4.612350|
|        3937|   -4.246092|   -1.832496|   -1.942092|   -4.607626|
|        3938|   -4.154864|   -1.816138|   -1.924816|   -4.598133|
|        3939|   -4.111193|   -1.791294|   -1.894595|   -4.564635|
|        3940|   -4.001719|   -1.751246|   -1.879993|   -4.501043|
|        3941|   -3.898211|   -1.720575|   -1.840379|   -4.404587|
|        3942|   -3.862855|   -1.726517|   -1.742259|   -4.080587|
|        3943|   -3.711934|   -1.715736|   -1.662652|   -3.269672|
|        3944|   -2.892943|   -0.930768|   -0.695576|   -3.662828|
|        3945|   -3.135626|   -1.043744|   -0.738529|   -3.093131|
|        3946|   -3.067154|   -1.163105|   -0.856139|   -3.212220|
|        3947|   -2.979436|   -0.972334|   -1.051894|   -3.175143|
|        3948|   -2.958720|   -1.148527|   -1.086475|   -2.986338|
|        3949|   -2.813027|   -0.923981|   -0.809836|   -3.017714|
|        3950|   -2.822061|   -0.847019|   -0.790575|   -2.877609|
|        3951|   -2.620727|   -0.515099|   -0.643205|   -3.136028|
|        3952|   -2.622650|   -0.460938|   -0.507134|   -2.933202|
|        3953|   -2.628338|   -0.468936|   -0.496483|   -2.849517|
|        3954|   -2.558164|   -0.407105|   -0.435409|   -2.979503|
|        3955|   -2.561698|   -0.373966|   -0.399019|   -2.749314|
|        3956|   -2.426518|   -0.280418|   -0.352629|   -2.788478|
|        3957|   -2.437557|   -0.196026|   -0.325398|   -2.893724|
|        3958|   -2.421354|   -0.122504|   -0.284815|   -1.721074|
|        3959|   -1.513637|    0.128269|    0.192675|   -2.353243|
|        3960|   -1.622481|    0.057533|    0.088949|   -2.102622|
|        3961|   -1.605450|    0.083205|    0.338611|   -2.464266|
|        3962|   -1.619334|    0.106100|    0.363687|   -2.410048|
|        3963|   -1.640554|    0.133271|    0.361868|   -2.564905|
|        3964|   -1.657020|    0.241336|    0.373482|   -2.568751|
|        3965|   -1.675662|    0.386578|    0.465725|   -2.044738|
|        3966|   -1.239821|    1.166042|    1.050978|   -1.500326|
|        3967|   -1.198958|    1.209822|    1.048216|   -2.029355|
|        3968|   -1.327793|    1.053120|    0.947973|   -1.805124|
|        3969|   -1.389470|    0.989431|    0.879942|   -1.257990|
|        3970|   -1.006207|    1.428665|    1.476363|   -1.462601|
|        3971|   -1.090010|    1.300302|    1.292964|   -0.252131|
|        3972|    0.189052|    2.692478|    1.589889|   -0.823937|
|        3973|    0.171414|    2.677031|    1.485947|   -1.176221|
|        3974|    0.151366|    2.656575|    1.467391|   -1.292778|
|        3975|    0.129863|    2.634557|    1.446708|   -1.429531|
|        3976|    0.105996|    2.610099|    1.420463|   -1.227315|
|        3977|    0.079376|    2.582852|    1.394569|   -1.004638|
|        3978|    0.050769|    2.551859|    1.446849|   -1.219356|
|        3979|    0.019882|    2.519949|    1.463349|   -1.359495|
|        3980|   -0.014953|    2.483409|    1.446624|   -1.151739|
|        3981|   -0.052227|    2.443903|    1.532803|   -0.505431|
|        3982|   -0.074017|    2.418268|    1.505823|   -0.966267|
|        3983|    0.052350|    2.578319|    1.971389|   -0.754647|
|        3984|    0.000524|    2.548624|    2.301870|   -1.096304|
|        3985|   -0.030076|    2.455978|    1.913770|   -1.196487|
|        3986|   -0.057834|    2.426259|    1.901299|   -1.008212|
|        3987|   -0.082961|    2.402297|    1.892977|   -1.102504|
|        3988|   -0.108909|    2.397410|    1.881106|   -1.183184|
|        3989|   -0.124190|    2.387986|    1.873349|   -0.421484|
|        3990|    0.128871|    2.632327|    2.151039|   -0.865418|
|        3991|    0.117944|    2.640954|    2.158964|   -0.557895|
|        3992|    0.366020|    2.862300|    2.165410|   -1.004799|
|        3993|    0.387150|    2.847323|    2.170117|   -0.879097|
|        3994|    0.555330|    2.999596|    2.693374|   -0.551287|
|        3995|    0.526490|    3.229712|    2.815549|   -0.089990|
|        3996|    0.551429|    3.259818|    2.581667|   -0.506649|
|        3997|    0.549840|    3.155545|    2.507747|   -0.491802|
|        3998|    0.549935|    3.140690|    2.583234|   -0.579335|
|        3999|    0.548021|    3.128393|    2.602130|   -0.450619|
|        4000|    0.546483|    3.117705|    2.625731|   -0.563290|
+-----------------------------------------------------------------------+
|        File Writing Summary       |              Filename             |
+-----------------------------------------------------------------------+
|SU2 restart                        |restart_venturi_mixturedensity_30kW_fine.dat|
|                                   |                     (73.0317 MB/s)|
|Paraview                           |flow_venturi_mixturedensity_30kW_fine_00004000.vtu|
|                                   |                     (3.59632 MB/s)|
|Paraview surface                   |surface_flow_venturi_mixturedensity_30kW_fine.vtu|
|                                   |                     (2.77105 MB/s)|
+-----------------------------------------------------------------------+
+----------------------------------------------------------------+
|  Inner_Iter|      rms[P]|      rms[U]|      rms[V]|      rms[c]|
+----------------------------------------------------------------+
|        4001|    0.544720|    3.107632|    2.640032|   -0.400155|
|        4002|    0.542640|    3.097951|    2.645817|   -0.472889|
|        4003|    0.558987|    3.103562|    2.657427|   -0.379979|
|        4004|    0.556226|    3.094878|    2.644289|    0.297278|
|        4005|    0.589025|    3.322842|    2.981621|   -0.239071|
|        4006|    0.590880|    3.263660|    3.060270|   -0.300064|
|        4007|    0.586861|    3.764839|    3.459392|   -0.334259|
|        4008|    0.584209|    3.289980|    2.958850|   -0.483041|
|        4009|    0.579575|    3.284304|    2.932346|   -0.392597|
|        4010|    0.575107|    3.278676|    2.906388|   -0.352085|
|        4011|    0.573991|    3.094842|    2.658454|   -0.469222|
|        4012|    0.569932|    3.157741|    2.739467|   -0.720955|
|        4013|    0.566648|    3.174707|    2.712125|   -0.598792|
|        4014|    0.562769|    3.169460|    2.674452|   -0.676763|
|        4015|    0.557903|    3.163773|    2.638346|   -0.588013|
|        4016|    0.553739|    3.158432|    2.606923|   -0.652191|
|        4017|    0.603212|    3.239131|    2.642248|   -0.816735|
|        4018|    0.606832|    3.163628|    2.582041|   -0.427620|
|        4019|    0.834479|    3.374831|    3.143715|   -0.297766|
|        4020|    0.877822|    3.435582|    3.089858|   -0.381437|
|        4021|    0.908424|    3.473318|    3.040947|   -0.285005|
|        4022|    0.926386|    3.492966|    3.409050|   -0.072349|
|        4023|    0.961722|    3.508989|    3.478815|    0.032119|
|        4024|    0.972347|    3.598126|    3.843154|   -0.262184|
|        4025|    0.973719|    3.530860|    3.462286|   -0.577581|
|        4026|    0.972758|    3.539310|    3.468390|   -0.170265|
|        4027|    0.973438|    3.541272|    3.471288|   -0.144835|
|        4028|    0.972087|    3.548145|    3.475523|   -0.152930|
|        4029|    0.968992|    3.543859|    3.465212|   -0.143900|
|        4030|    0.963447|    3.534113|    3.478377|   -0.111367|
|        4031|    0.964362|    3.543117|    3.509447|   -0.195390|
|        4032|    0.967884|    3.561915|    3.556707|   -0.156922|
|        4033|    0.970588|    3.575697|    3.585696|   -0.158169|
|        4034|    0.975016|    3.564951|    3.551185|    0.018796|
|        4035|    0.983927|    3.591729|    3.596993|   -0.295917|
|        4036|    0.995291|    3.597409|    3.590770|   -0.231035|
|        4037|    1.013522|    3.595278|    3.576567|   -0.243811|
|        4038|    1.041594|    3.635753|    3.602949|    0.286221|
|        4039|    1.423480|    3.972441|    3.704946|   -0.011584|
|        4040|    1.452350|    4.028527|    3.720831|   -0.248994|
|        4041|    1.474652|    4.059681|    3.755095|    0.771071|
|        4042|    1.497082|    4.091748|    3.809591|   -0.147489|
|        4043|    1.514747|    4.119065|    3.844387|    0.245915|
|        4044|    1.543602|    4.203391|    4.029759|   -0.022091|
|        4045|    1.567029|    4.226632|    4.054342|    0.354215|
|        4046|    1.599565|    4.260858|    4.085174|    0.274208|
|        4047|    1.634098|    4.295756|    4.121101|    0.318050|
|        4048|    1.677521|    4.807980|    4.645801|    0.325945|
|        4049|    1.689220|    4.379248|    4.207674|    0.447857|
|        4050|    1.746201|    4.401822|    4.236625|    0.357692|
|        4051|    1.794152|    4.452835|    4.273586|    1.307276|
|        4052|    2.304622|    5.090354|    4.484119|    1.233364|
|        4053|    2.316804|    5.422571|    4.953554|    1.169247|
|        4054|    2.319908|    6.939675|    6.611580|    1.152098|
|        4055|    2.319792|    6.363037|    6.022903|    1.076594|
|        4056|    2.320016|    5.994777|    5.632268|    0.921127|
|        4057|    2.320763|    5.990541|    5.627983|    1.014008|
|        4058|    2.321631|    5.991561|    5.629314|    0.853449|
|        4059|    2.322649|    5.992801|    5.630170|    0.846961|
|        4060|    2.323519|    5.994226|    5.631857|    0.858649|
|        4061|    2.324391|    5.995647|    5.633833|    0.442158|
|        4062|    2.325257|    5.997068|    5.635860|    0.874287|
|        4063|    2.326116|    5.998485|    5.637889|    0.496907|
|        4064|    2.327000|    5.999920|    5.639884|    0.761426|
|        4065|    2.327884|    6.001369|    5.641841|    0.664482|
|        4066|    2.328775|    6.002849|    5.643807|    0.670530|
|        4067|    2.329675|    6.004359|    5.645870|    0.878638|
|        4068|    2.330577|    6.005899|    5.648000|    0.877804|
|        4069|    2.331499|    6.007469|    5.650068|    0.870220|
|        4070|    2.332428|    6.009062|    5.652123|    0.866037|
|        4071|    2.333344|    6.010684|    5.654293|    0.859275|
|        4072|    2.334176|    6.012303|    5.656835|    0.854365|
|        4073|    2.335016|    6.013947|    5.659505|    0.850358|
|        4074|    2.335855|    6.015617|    5.662203|    0.841451|
|        4075|    2.336692|    6.017310|    5.664933|    0.840092|
|        4076|    2.337635|    6.019065|    5.667322|    0.841951|
|        4077|    2.338577|    6.020843|    5.669616|    0.842781|
|        4078|    2.339520|    6.022626|    5.671951|    0.841888|
|        4079|    2.340475|    6.024429|    5.674286|    0.666437|
|        4080|    2.341441|    6.026258|    5.676614|    0.794398|
|        4081|    2.342416|    6.028110|    5.678977|    0.705817|
|        4082|    2.343397|    6.029979|    5.681377|    0.644867|
|        4083|    2.344298|    6.031832|    5.684097|    0.640916|
|        4084|    2.345207|    6.033695|    5.686955|    0.634958|
|        4085|    2.346111|    6.035580|    5.689858|    0.818629|
|        4086|    2.347009|    6.037480|    5.692827|    0.830377|
|        4087|    2.347905|    6.039395|    5.695840|    0.846013|
|        4088|    2.348798|    6.041323|    5.698903|    0.856102|
|        4089|    2.349697|    6.043271|    5.701970|    0.863206|
|        4090|    2.350599|    6.045236|    5.705069|    0.858358|
|        4091|    2.351513|    6.047219|    5.708181|    0.802028|
|        4092|    2.352423|    6.049222|    5.711397|    0.892280|
|        4093|    2.353350|    6.051243|    5.714575|    0.922152|
|        4094|    2.354296|    6.053283|    5.717731|    0.926530|
|        4095|    2.355264|    6.055337|    5.720819|    1.059250|
|        4096|    2.356581|    6.057497|    5.722987|    0.896507|
|        4097|    2.357889|    6.059685|    5.724918|    0.854353|
|        4098|    2.359209|    6.061879|    5.726920|    0.862019|
|        4099|    2.360541|    6.064093|    5.728968|    0.861231|
|        4100|    2.361882|    6.066313|    5.731050|    0.858049|
|        4101|    2.363235|    6.068549|    5.733169|    0.853981|
|        4102|    2.364601|    6.070805|    5.735336|    0.854676|
|        4103|    2.365980|    6.073084|    5.737551|    0.858157|
|        4104|    2.367373|    6.075384|    5.739802|    0.857895|
|        4105|    2.368779|    6.077701|    5.742079|    0.866128|
|        4106|    2.370201|    6.080034|    5.744375|    0.858601|
|        4107|    2.371634|    6.082385|    5.746720|    0.861429|
|        4108|    2.373082|    6.084760|    5.749110|    0.867297|
|        4109|    2.374544|    6.087129|    5.751529|    0.912466|
|        4110|    2.376303|    6.090871|    5.753957|    0.880296|
|        4111|    2.377647|    6.256069|    5.927236|    0.876066|
|        4112|    2.378628|    6.257749|    5.929023|    0.887681|
|        4113|    2.379607|    6.260142|    5.942749|    0.938768|
|        4114|    2.380596|    6.366676|    6.041895|    0.892507|
|        4115|    2.381698|    6.325351|    5.998744|    0.866377|
|        4116|    2.382590|    6.101804|    5.765682|    0.894585|
|        4117|    2.384183|    6.104554|    5.768380|    0.946206|
|        4118|    2.385751|    6.106969|    5.770804|    0.997411|
|        4119|    2.449744|    6.331485|    5.850349|    1.033852|
|        4120|    2.419209|    6.237999|    5.808273|    1.102550|
|        4121|    2.396433|    6.292332|    5.952370|    1.087199|
|        4122|    2.396748|    6.292561|    5.953375|    3.482700|
|        4123|    3.542935|    7.754270|    6.985597|    3.850939|
|        4124|    3.540903|    8.061567|    6.946751|    2.596540|
|        4125|    3.540689|    7.982700|    6.917089|    2.357591|
|        4126|    3.539454|    7.980260|    6.917519|    2.828760|
|        4127|    3.537665|    7.977288|    6.927743|    2.370769|
|        4128|    3.534749|    7.971984|    6.974775|    2.559366|
|        4129|    3.528911|    7.963574|    7.104382|    2.524344|
|        4130|    3.520079|    7.952950|    7.309938|    2.215112|
|        4131|    3.508001|    7.938545|    7.517835|    2.327336|
|        4132|    3.493805|    7.916868|    7.693445|    2.291726|
|        4133|    3.481725|    7.893117|    7.829054|    2.064280|
|        4134|    3.474193|    7.866846|    7.938064|    1.662136|
|        4135|    3.473434|    7.839391|    8.027092|    1.585225|
|        4136|    3.480216|    7.812184|    8.100811|    1.723931|
|        4137|    3.493678|    7.786883|    8.162237|    1.415125|
|        4138|    3.511659|    7.765557|    8.213188|    1.077123|
|        4139|    3.531435|    7.751435|    8.254600|    0.967387|
|        4140|    3.550257|    7.748835|    8.286831|    1.057284|
|        4141|    3.565961|    7.763714|    8.309917|    1.511141|
|        4142|    3.577179|    7.800064|    8.323829|    1.716034|
|        4143|    3.583358|    7.855432|    8.328655|    2.541198|
|        4144|    3.578403|    7.927934|    6.877748|    3.147711|
|        4145|    3.574901|    8.000931|    6.862081|    2.510091|
|        4146|    3.566675|    8.067313|    6.858960|    2.447983|
|        4147|    3.554111|    8.125174|    6.857368|    2.097712|
|        4148|    3.535368|    8.174361|    6.861498|    1.235645|
|        4149|    3.514068|    8.215880|    6.875382|    1.308535|
|        4150|    3.491405|    8.250689|    6.898383|    0.952102|
|        4151|    3.468274|    8.279484|    6.924866|    1.398700|
|        4152|    3.445283|    8.302977|    6.954129|    1.169418|
|        4153|    3.422940|    8.321758|    6.983497|    1.365341|
|        4154|    3.401596|    8.336416|    7.012690|    1.381262|
|        4155|    3.381567|    8.347442|    7.039673|    1.101537|
|        4156|    3.362981|    8.355255|    7.063935|    0.916521|
|        4157|    3.345730|    8.360140|    7.086265|    0.906926|
|        4158|    3.329979|    8.362475|    7.104636|    0.887486|
|        4159|    3.315589|    8.362580|    7.120420|    0.906171|
|        4160|    3.302642|    8.360757|    7.133775|    0.916530|
|        4161|    3.291024|    8.357207|    7.145107|    0.927231|
|        4162|    3.280444|    8.351957|    7.154807|    0.939994|
|        4163|    3.271691|    8.345382|    7.162214|    0.982289|
|        4164|    3.263804|    8.337477|    7.168250|    2.163088|
|        4165|    3.255048|    8.758380|    7.643774|    2.120407|
|        4166|    3.253015|    8.754957|    7.643429|    2.047531|
|        4167|    3.251858|    8.507918|    7.383619|    1.564716|
|        4168|    3.241714|    8.326252|    6.947745|    1.930733|
|        4169|    3.235346|    8.312976|    6.945026|    2.162061|
|        4170|    3.229167|    8.296301|    6.947087|    1.965126|
|        4171|    3.224388|    8.265801|    6.940895|    1.951647|
|        4172|    3.221731|    8.246227|    6.948617|    1.742947|
|        4173|    3.220719|    8.226489|    6.957072|    1.296202|
|        4174|    3.222004|    8.206895|    6.966427|    1.225336|
|        4175|    3.224155|    8.187438|    6.982080|    1.189777|
|        4176|    3.232257|    8.169090|    6.994536|    1.139852|
|        4177|    3.238687|    8.150017|    7.009226|    1.680334|
|        4178|    3.246539|    8.130996|    7.037630|    1.692329|
|        4179|    3.255602|    8.112151|    7.068516|    1.691511|


Error in "void CSolver::SetResidual_RMS(const CGeometry*, const CConfig*)": 
-------------------------------------------------------------------------
SU2 has diverged (Residual > 10^20 detected).
------------------------------ Error Exit -------------------------------


