scsub> Executing:  'cd /home/hem1dev/Codes/SU2_Github_Mark_Test/SU2/Venturi'


WARNING: CONV_CRITERIA is deprecated. SU2 will choose the criteria automatically based on the CONV_FIELD.
That is, RESIDUAL for any RMS_* BGS_* value, and CAUCHY for coefficients such as DRAG etc.


-------------------------------------------------------------------------
|    ___ _   _ ___                                                      |
|   / __| | | |_  )   Release 7.1.1 "Blackbird"                         |
|   \__ \ |_| |/ /                                                      |
|   |___/\___//___|   Suite (Computational Fluid Dynamics Code)         |
|                                                                       |
-------------------------------------------------------------------------
| SU2 Project Website: https://su2code.github.io                        |
|                                                                       |
| The SU2 Project is maintained by the SU2 Foundation                   |
| (http://su2foundation.org)                                            |
-------------------------------------------------------------------------
| Copyright 2012-2021, SU2 Contributors                                 |
|                                                                       |
| SU2 is free software; you can redistribute it and/or                  |
| modify it under the terms of the GNU Lesser General Public            |
| License as published by the Free Software Foundation; either          |
| version 2.1 of the License, or (at your option) any later version.    |
|                                                                       |
| SU2 is distributed in the hope that it will be useful,                |
| but WITHOUT ANY WARRANTY; without even the implied warranty of        |
| MERCHANTABILITY or FITNESS FOR A PARTICULAR PURPOSE. See the GNU      |
| Lesser General Public License for more details.                       |
|                                                                       |
| You should have received a copy of the GNU Lesser General Public      |
| License along with SU2. If not, see <http://www.gnu.org/licenses/>.   |
-------------------------------------------------------------------------


WARNING: CONV_CRITERIA is deprecated. SU2 will choose the criteria automatically based on the CONV_FIELD.
That is, RESIDUAL for any RMS_* BGS_* value, and CAUCHY for coefficients such as DRAG etc.


Parsing config file for zone 0


WARNING: CONV_CRITERIA is deprecated. SU2 will choose the criteria automatically based on the CONV_FIELD.
That is, RESIDUAL for any RMS_* BGS_* value, and CAUCHY for coefficients such as DRAG etc.


----------------- Physical Case Definition ( Zone 0 ) -------------------
Incompressible RANS equations.
Turbulence model: Menter's SST
Hybrid RANS/LES: No Hybrid RANS/LES
No restart solution, use the values at infinity (freestream).
Dimensional simulation.
The reference area is 1 m^2.
The semi-span will be computed using the max y(3D) value.
The reference length is 1 m.
Input mesh file name: venturi_refined_withblock.cgns

--------------- Space Numerical Integration ( Zone 0 ) ------------------
Flux difference splitting (FDS) upwind scheme for the flow inviscid terms.
Second order integration in space, with slope limiter.
No slope-limiting method. 
Average of gradients with correction (viscous flow terms).
Average of gradients with correction (viscous turbulence terms).
Gradient for upwind reconstruction: inverse-distance weighted Least-Squares.
Gradient for viscous and source terms: inverse-distance weighted Least-Squares.

--------------- Time Numerical Integration  ( Zone 0 ) ------------------
Local time stepping (steady state simulation).
Euler implicit method for the flow equations.
FGMRES is used for solving the linear system.
Using a ILU(0) preconditioning.
Convergence criteria of the linear solver: 1e-08.
Max number of linear iterations: 30.
No CFL adaptation.
Courant-Friedrichs-Lewy number:       10
Euler implicit time integration for the turbulence model.

------------------ Convergence Criteria  ( Zone 0 ) ---------------------
Maximum number of solver subiterations: 50000.
Begin convergence monitoring at iteration 10.
Residual minimum value: 1e-10.
Cauchy series min. value: 1e-06.
Number of Cauchy elements: 100.
Begin windowed time average at iteration 0.

-------------------- Output Information ( Zone 0 ) ----------------------
Writing solution files every 5000 iterations.
Writing the convergence history file every 1 inner iterations.
Writing the screen convergence history every 1 inner iterations.
The tabular file format is CSV (.csv).
Convergence history file name: history_refined_withblock.
Forces breakdown file name: forces_breakdown.dat.
Surface file name: surface_flow_venturi_mixturedensity_30kW_refined_withblock.
Volume file name: flow_venturi_mixturedensity_30kW_refined_withblock.
Restart file name: restart_venturi_mixturedensity_30kW_refined_withblock.dat.

------------- Config File Boundary Information ( Zone 0 ) ---------------
+-----------------------------------------------------------------------+
|                        Marker Type|                        Marker Name|
+-----------------------------------------------------------------------+
|                     Symmetry plane|                               axis|
+-----------------------------------------------------------------------+
|                     Inlet boundary|                          gas_inlet|
|                                   |                          air_inlet|
+-----------------------------------------------------------------------+
|                    Outlet boundary|                             outlet|
+-----------------------------------------------------------------------+
|                     Heat flux wall|                    wall_needlecase|
|                                   |                        wall_needle|
|                                   |                       wall_venturi|
+-----------------------------------------------------------------------+

-------------------- Output Preprocessing ( Zone 0 ) --------------------
  Info: Ignoring the following screen output fields:
  RMS_PASSIVE_SCALAR
Screen output fields: INNER_ITER, RMS_PRESSURE, RMS_VELOCITY-X, RMS_VELOCITY-Y
History output group(s): RMS_RES, AERO_COEFF, FLOW_COEFF
Convergence field(s): RMS_PRESSURE, RMS_VELOCITY-X, RMS_VELOCITY-Y, RMS_TKE
Warning: No (valid) fields chosen for time convergence monitoring. Time convergence monitoring inactive.
  Info: Ignoring the following volume output fields/groups:
  SOURCE, LOOKUP
Volume output fields: DENSITY, SOLUTION, PRIMITIVE, RESIDUAL, COORDINATES

------------------- Geometry Preprocessing ( Zone 0 ) -------------------
Reading the CGNS file: venturi_refined_withblock.cgns.
CGNS file contains 1 database(s).
Database 1, Base:  cell dimension of 2, physical dimension of 2.
1 total zone(s).
Zone 1, Zone: 119005 total vertices, 121308 total elements.
Loading CoordinateX values into linear partitions.
Loading CoordinateY values into linear partitions.
Distributing connectivity across all ranks.
Number of connectivity sections is 8.
Section fluid-part-surface_body contains 116850 elements of type Mixed.
Section gas_inlet contains 37 elements of type Mixed.
Section air_inlet contains 111 elements of type Mixed.
Section outlet contains 59 elements of type Mixed.
Section axis contains 1283 elements of type Mixed.
Section wall_venturi contains 1438 elements of type Mixed.
Section wall_needle contains 680 elements of type Mixed.
Section wall_needlecase contains 850 elements of type Mixed.
Loading volume section fluid-part-surface_body from file.
Loading surface section gas_inlet from file.
Loading surface section air_inlet from file.
Loading surface section outlet from file.
Loading surface section axis from file.
Loading surface section wall_venturi from file.
Loading surface section wall_needle from file.
Loading surface section wall_needlecase from file.
Two dimensional problem.
119005 grid points before partitioning.
116850 volume elements before partitioning.
7 surface markers.
37 boundary elements in index 0 (Marker = gas_inlet).
111 boundary elements in index 1 (Marker = air_inlet).
59 boundary elements in index 2 (Marker = outlet).
1283 boundary elements in index 3 (Marker = axis).
1438 boundary elements in index 4 (Marker = wall_venturi).
680 boundary elements in index 5 (Marker = wall_needle).
850 boundary elements in index 6 (Marker = wall_needlecase).
Executing the partitioning functions.
Building the graph adjacency structure.
Calling ParMETIS... graph partitioning complete (7852 edge cuts).
Distributing ParMETIS coloring.
Rebalancing vertices.
Rebalancing volume element connectivity.
Rebalancing markers and surface elements.
134978 vertices including ghost points. 
124698 interior elements including halo cells. 
153 triangles.
124545 quadrilaterals.
Establishing MPI communication patterns.
Setting point connectivity.
Renumbering points (Reverse Cuthill McKee Ordering).
Recomputing point connectivity.
Setting element connectivity.
Checking the numerical grid orientation.
All volume elements are correctly orientend.
All surface elements are correctly orientend.
Identifying edges and vertices.
Setting the control volume structure.
Area of the computational grid: 0.00391554.
Searching for the closest normal neighbors to the surfaces.
Storing a mapping from global to local point index.
Compute the surface curvature.
Max K: 18506.3. Mean K: 143.652. Standard deviation K: 1205.15.
Checking for periodicity.
Computing mesh quality statistics for the dual control volumes.
+--------------------------------------------------------------+
|           Mesh Quality Metric|        Minimum|        Maximum|
+--------------------------------------------------------------+
|    Orthogonality Angle (deg.)|        52.0822|        89.9999|
|     CV Face Area Aspect Ratio|        1.00004|        12.1311|
|           CV Sub-Volume Ratio|              1|         16.456|
+--------------------------------------------------------------+
Finding max control volume width.
Communicating number of neighbors.
Wetted area = 0 m^2.
Area projection in the x-plane = 0 m, y-plane = 0 m.
Max. coordinate in the x-direction = -1e+10 m, y-direction = -1e+10 m.
Min. coordinate in the x-direction = 1e+10 m, y-direction = 1e+10 m.
Checking if Euler & Symmetry markers are straight/plane:
Boundary marker axis is a single straight.
Computing wall distances.

-------------------- Solver Preprocessing ( Zone 0 ) --------------------
Incompressible flow: rho_ref, vel_ref, temp_ref, p_ref
are set to 1.0 in order to perform a dimensional calculation.
Force coefficients computed using initial values.
The reference area for force coeffs. is 1 m^2.
The reference length for force coeffs. is 1 m.
The pressure is decomposed into thermodynamic and dynamic components.
The initial value of the dynamic pressure is 0.
Mach number: 0, computed using fluid speed of sound.
For external flows, the initial state is imposed at the far-field.
Angle of attack (deg): 0, computed using the initial velocity.
Side slip angle (deg): 0, computed using the initial velocity.
Reynolds number per meter: 63489.9, computed using initial values.
Reynolds number is a byproduct of inputs only (not used internally).
SI units only. The grid should be dimensional (meters).
Energy equation is active and coupled for variable density.

-- Models:
+------------------------------------------------------------------------------+
|          Viscosity Model|        Conductivity Model|              Fluid Model|
+------------------------------------------------------------------------------+
|               SUTHERLAND|          CONSTANT_PRANDTL|            INC_IDEAL_GAS|
+------------------------------------------------------------------------------+
-- Fluid properties:
+------------------------------------------------------------------------------+
|                  Name|    Dim. value|    Ref. value|      Unit|Non-dim. value|
+------------------------------------------------------------------------------+
|        Ref. Viscosity|     1.716e-05|             1|   N.s/m^2|     1.716e-05|
|      Sutherland Temp.|        273.15|             1|         K|        273.15|
|     Sutherland Const.|         110.4|             1|         K|         110.4|
+------------------------------------------------------------------------------+
|        Prandtl (Lam.)|             -|             -|         -|          0.72|
|       Prandtl (Turb.)|             -|             -|         -|           0.9|
+------------------------------------------------------------------------------+
|       Spec. Heat (Cp)|        1004.7|             1|  N.m/kg.K|        1004.7|
|      Molecular weight|       12.8252|             1|     g/mol|       12.8252|
|          Gas Constant|       296.945|             1|  N.m/kg.K|       296.945|
|       Therm. Pressure|        104403|             1|        Pa|        104403|
+------------------------------------------------------------------------------+
-- Initial and free-stream conditions:
+------------------------------------------------------------------------------+
|                  Name|    Dim. value|    Ref. value|      Unit|Non-dim. value|
+------------------------------------------------------------------------------+
|      Dynamic Pressure|             0|             1|        Pa|             0|
|        Total Pressure|      0.585985|             1|        Pa|      0.585985|
|               Density|       1.17197|             1|    kg/m^3|       1.17197|
|           Temperature|           300|             1|         K|           300|
|            Velocity-X|             1|             1|       m/s|             1|
|            Velocity-Y|             0|             1|       m/s|             0|
|    Velocity Magnitude|             1|             1|       m/s|             1|
+------------------------------------------------------------------------------+
|             Viscosity|   1.84592e-05|             1|   N.s/m^2|   1.84592e-05|
|          Conductivity|             -|             1|   W/m^2.K|             -|
|     Turb. Kin. Energy|       0.00375|             1|   m^2/s^2|       0.00375|
|     Spec. Dissipation|       23.8087|             1|       1/s|       23.8087|
+------------------------------------------------------------------------------+
|           Mach Number|             -|             -|         -|             0|
|       Reynolds Number|             -|             -|         -|       63489.9|
+------------------------------------------------------------------------------+
Initialize Jacobian structure (Navier-Stokes). MG level: 0.
Initialize Jacobian structure (SST model).

------------------- Numerics Preprocessing ( Zone 0 ) -------------------

----------------- Integration Preprocessing ( Zone 0 ) ------------------

------------------- Iteration Preprocessing ( Zone 0 ) ------------------
Euler/Navier-Stokes/RANS fluid iteration.

------------------------------ Begin Solver -----------------------------

Simulation Run using the Single-zone Driver
+---------------------------------------------------+
|  Inner_Iter|      rms[P]|      rms[U]|      rms[V]|
+---------------------------------------------------+
|           0|   -4.417611|   -4.240282|   -3.653204|
|           1|   -4.513100|   -4.235461|   -3.666125|
|           2|   -4.826912|   -4.320425|   -3.893753|
|           3|   -4.923072|   -4.364043|   -3.911357|
|           4|   -4.988119|   -4.400394|   -3.900401|
|           5|   -5.044634|   -4.427971|   -3.912961|
|           6|   -5.091971|   -4.451219|   -3.936337|
|           7|   -5.121984|   -4.467648|   -3.955429|
|           8|   -5.138433|   -4.475303|   -3.962501|
|           9|   -5.148626|   -4.476957|   -3.961686|
|          10|   -5.154756|   -4.475682|   -3.956530|
|          11|   -5.158308|   -4.473522|   -3.950725|
|          12|   -5.160397|   -4.470765|   -3.946322|
|          13|   -5.161682|   -4.466978|   -3.944164|
|          14|   -5.162539|   -4.461601|   -3.944463|
|          15|   -5.163031|   -4.454061|   -3.947292|
|          16|   -5.163050|   -4.443874|   -3.952631|
|          17|   -5.162415|   -4.430746|   -3.960634|
|          18|   -5.160962|   -4.414656|   -3.971260|
|          19|   -5.158561|   -4.395962|   -3.984914|
|          20|   -5.155119|   -4.375352|   -4.002453|
|          21|   -5.150655|   -4.353722|   -4.024752|
|          22|   -5.145476|   -4.331967|   -4.052476|
|          23|   -5.140199|   -4.310779|   -4.086193|
|          24|   -5.135604|   -4.290602|   -4.126069|
|          25|   -5.132433|   -4.271656|   -4.171712|
|          26|   -5.131228|   -4.254029|   -4.221529|
|          27|   -5.132256|   -4.237789|   -4.272922|
|          28|   -5.135491|   -4.222986|   -4.321867|
|          29|   -5.140650|   -4.209647|   -4.363758|
|          30|   -5.147263|   -4.197756|   -4.395041|
|          31|   -5.154757|   -4.187255|   -4.414420|
|          32|   -5.162533|   -4.178071|   -4.424211|
|          33|   -5.170033|   -4.170136|   -4.428191|
|          34|   -5.176822|   -4.163431|   -4.430625|
|          35|   -5.182632|   -4.157979|   -4.432904|
|          36|   -5.187379|   -4.153804|   -4.436814|
|          37|   -5.191151|   -4.150865|   -4.442420|
|          38|   -5.194207|   -4.149010|   -4.448209|
|          39|   -5.196937|   -4.147943|   -4.453217|
|          40|   -5.199799|   -4.147263|   -4.455346|
|          41|   -5.203194|   -4.146525|   -4.453869|
|          42|   -5.207394|   -4.145329|   -4.448096|
|          43|   -5.212481|   -4.143487|   -4.438046|
|          44|   -5.218281|   -4.141121|   -4.425138|
|          45|   -5.224452|   -4.138638|   -4.410650|
|          46|   -5.230585|   -4.136568|   -4.396265|
|          47|   -5.236290|   -4.135380|   -4.383439|
|          48|   -5.241312|   -4.135364|   -4.372786|
|          49|   -5.245516|   -4.136555|   -4.364219|
|          50|   -5.248861|   -4.138755|   -4.357153|
|          51|   -5.251361|   -4.141620|   -4.351142|
|          52|   -5.253029|   -4.144764|   -4.345209|
|          53|   -5.253884|   -4.147856|   -4.338628|
|          54|   -5.253977|   -4.150683|   -4.330686|
|          55|   -5.253453|   -4.153157|   -4.321113|
|          56|   -5.252597|   -4.155281|   -4.309976|
|          57|   -5.251810|   -4.157092|   -4.297890|
|          58|   -5.251520|   -4.158602|   -4.285742|
|          59|   -5.252079|   -4.159749|   -4.274300|
|          60|   -5.253680|   -4.160394|   -4.263886|
|          61|   -5.256355|   -4.160343|   -4.254840|
|          62|   -5.259945|   -4.159399|   -4.246055|
|          63|   -5.264289|   -4.157427|   -4.237313|
|          64|   -5.269191|   -4.154410|   -4.228079|
|          65|   -5.274427|   -4.150476|   -4.218118|
|          66|   -5.279769|   -4.145884|   -4.207393|
|          67|   -5.284974|   -4.140976|   -4.196199|
|          68|   -5.289781|   -4.136117|   -4.184924|
|          69|   -5.293933|   -4.131629|   -4.174157|
|          70|   -5.297196|   -4.127739|   -4.164432|
|          71|   -5.299383|   -4.124551|   -4.156137|
|          72|   -5.300391|   -4.122039|   -4.149665|
|          73|   -5.300222|   -4.120055|   -4.145239|
|          74|   -5.298969|   -4.118353|   -4.142985|
|          75|   -5.296808|   -4.116623|   -4.142903|
|          76|   -5.293971|   -4.114533|   -4.144889|
|          77|   -5.290714|   -4.111774|   -4.148759|
|          78|   -5.287282|   -4.108098|   -4.154287|
|          79|   -5.283882|   -4.103352|   -4.161132|
|          80|   -5.280674|   -4.097485|   -4.169001|
|          81|   -5.277752|   -4.090544|   -4.177615|
|          82|   -5.275152|   -4.082653|   -4.186812|
|          83|   -5.272862|   -4.073984|   -4.196490|
|          84|   -5.270842|   -4.064726|   -4.206772|
|          85|   -5.269032|   -4.055064|   -4.217789|
|          86|   -5.267382|   -4.045161|   -4.229805|
|          87|   -5.265860|   -4.035150|   -4.243100|
|          88|   -5.264468|   -4.025135|   -4.257852|
|          89|   -5.263239|   -4.015198|   -4.274174|
|          90|   -5.262236|   -4.005398|   -4.291876|
|          91|   -5.261536|   -3.995790|   -4.310650|
|          92|   -5.261217|   -3.986423|   -4.329830|
|          93|   -5.261344|   -3.977348|   -4.348429|
|          94|   -5.261960|   -3.968614|   -4.365218|
|          95|   -5.263077|   -3.960279|   -4.378921|
|          96|   -5.264674|   -3.952392|   -4.388494|
|          97|   -5.266699|   -3.944999|   -4.393329|
|          98|   -5.269075|   -3.938136|   -4.393495|
|          99|   -5.271709|   -3.931822|   -4.389548|
|         100|   -5.274508|   -3.926065|   -4.382528|
|         101|   -5.277378|   -3.920851|   -4.373411|
|         102|   -5.280244|   -3.916155|   -4.363385|
|         103|   -5.283053|   -3.911939|   -4.353148|
|         104|   -5.285774|   -3.908156|   -4.343184|
|         105|   -5.288398|   -3.904752|   -4.333714|
|         106|   -5.290931|   -3.901673|   -4.324807|
|         107|   -5.293392|   -3.898866|   -4.316418|
|         108|   -5.295800|   -3.896284|   -4.308407|
|         109|   -5.298167|   -3.893887|   -4.300637|
|         110|   -5.300502|   -3.891646|   -4.293353|
|         111|   -5.302781|   -3.889540|   -4.285656|
|         112|   -5.304991|   -3.887558|   -4.278052|
|         113|   -5.307119|   -3.885693|   -4.270519|
|         114|   -5.309123|   -3.883938|   -4.263171|
|         115|   -5.310971|   -3.882285|   -4.255803|
|         116|   -5.312642|   -3.880719|   -4.248464|
|         117|   -5.314126|   -3.879214|   -4.241159|
|         118|   -5.315422|   -3.877740|   -4.233857|
|         119|   -5.316540|   -3.876255|   -4.226529|
|         120|   -5.317499|   -3.874713|   -4.219168|
|         121|   -5.318323|   -3.873065|   -4.211784|
|         122|   -5.319035|   -3.871266|   -4.204479|
|         123|   -5.319655|   -3.869275|   -4.197295|
|         124|   -5.320199|   -3.867058|   -4.190407|
|         125|   -5.320676|   -3.864591|   -4.184037|
|         126|   -5.321090|   -3.861862|   -4.178294|
|         127|   -5.321437|   -3.858870|   -4.173446|
|         128|   -5.321715|   -3.855623|   -4.169583|
|         129|   -5.321917|   -3.852137|   -4.166880|
|         130|   -5.322041|   -3.848437|   -4.165412|
|         131|   -5.322085|   -3.844551|   -4.165210|
|         132|   -5.322052|   -3.840511|   -4.166305|
|         133|   -5.321947|   -3.836355|   -4.168597|
|         134|   -5.321777|   -3.832118|   -4.172095|
|         135|   -5.321549|   -3.827836|   -4.176455|
|         136|   -5.321277|   -3.823546|   -4.181666|
|         137|   -5.320971|   -3.819280|   -4.187622|
|         138|   -5.320637|   -3.815065|   -4.194110|
|         139|   -5.320287|   -3.810925|   -4.200996|
|         140|   -5.319928|   -3.806877|   -4.208095|
|         141|   -5.319571|   -3.802929|   -4.215295|
|         142|   -5.319227|   -3.799084|   -4.222460|
|         143|   -5.318914|   -3.795336|   -4.229524|
|         144|   -5.318648|   -3.791671|   -4.236327|
|         145|   -5.318450|   -3.788070|   -4.242820|
|         146|   -5.318342|   -3.784507|   -4.248862|
|         147|   -5.318350|   -3.780956|   -4.254408|
|         148|   -5.318496|   -3.777387|   -4.259345|
|         149|   -5.318801|   -3.773774|   -4.263575|
|         150|   -5.319283|   -3.770090|   -4.267039|
|         151|   -5.319955|   -3.766319|   -4.269689|
|         152|   -5.320821|   -3.762447|   -4.271422|
|         153|   -5.321883|   -3.758472|   -4.272336|
|         154|   -5.323135|   -3.754398|   -4.272471|
|         155|   -5.324561|   -3.750240|   -4.271869|
|         156|   -5.326140|   -3.746019|   -4.270604|
|         157|   -5.327846|   -3.741764|   -4.268780|
|         158|   -5.329648|   -3.737509|   -4.266520|
|         159|   -5.331512|   -3.733291|   -4.263941|
|         160|   -5.333401|   -3.729148|   -4.261154|
|         161|   -5.335278|   -3.725116|   -4.258268|
|         162|   -5.337108|   -3.721231|   -4.255368|
|         163|   -5.338857|   -3.717522|   -4.252503|
|         164|   -5.340496|   -3.714014|   -4.249770|
|         165|   -5.342000|   -3.710725|   -4.247158|
|         166|   -5.343351|   -3.707665|   -4.244677|
|         167|   -5.344537|   -3.704837|   -4.242318|
|         168|   -5.345553|   -3.702235|   -4.239945|
|         169|   -5.346403|   -3.699845|   -4.237549|
|         170|   -5.347096|   -3.697649|   -4.235099|
|         171|   -5.347647|   -3.695619|   -4.232420|
|         172|   -5.348075|   -3.693723|   -4.229477|
|         173|   -5.348403|   -3.691926|   -4.226114|
|         174|   -5.348655|   -3.690188|   -4.222249|
|         175|   -5.348856|   -3.688470|   -4.217890|
|         176|   -5.349028|   -3.686732|   -4.212966|
|         177|   -5.349194|   -3.684939|   -4.207555|
|         178|   -5.349370|   -3.683055|   -4.201661|
|         179|   -5.349570|   -3.681054|   -4.195422|
|         180|   -5.349805|   -3.678911|   -4.188920|
|         181|   -5.350080|   -3.676611|   -4.182315|
|         182|   -5.350397|   -3.674146|   -4.175724|
|         183|   -5.350755|   -3.671511|   -4.169256|
|         184|   -5.351149|   -3.668712|   -4.163079|
|         185|   -5.351572|   -3.665760|   -4.157262|
|         186|   -5.352019|   -3.662668|   -4.151901|
|         187|   -5.352479|   -3.659457|   -4.147084|
|         188|   -5.352944|   -3.656148|   -4.142798|
|         189|   -5.353407|   -3.652767|   -4.139141|
|         190|   -5.353858|   -3.649338|   -4.136100|
|         191|   -5.354294|   -3.645885|   -4.133683|
|         192|   -5.354706|   -3.642433|   -4.131876|
|         193|   -5.355093|   -3.639003|   -4.130658|
|         194|   -5.355451|   -3.635614|   -4.130001|
|         195|   -5.355781|   -3.632282|   -4.129870|
|         196|   -5.356084|   -3.629021|   -4.130226|
|         197|   -5.356363|   -3.625839|   -4.131024|
|         198|   -5.356623|   -3.622744|   -4.132217|
|         199|   -5.356872|   -3.619736|   -4.133750|
|         200|   -5.357117|   -3.616817|   -4.135565|
|         201|   -5.357367|   -3.613983|   -4.137604|
|         202|   -5.357633|   -3.611228|   -4.139803|
|         203|   -5.357924|   -3.608546|   -4.142100|
|         204|   -5.358251|   -3.605926|   -4.144434|
|         205|   -5.358624|   -3.603360|   -4.146747|
|         206|   -5.359053|   -3.600837|   -4.148986|
|         207|   -5.359544|   -3.598348|   -4.151106|
|         208|   -5.360106|   -3.595884|   -4.153070|
|         209|   -5.360741|   -3.593436|   -4.154851|
|         210|   -5.361454|   -3.590999|   -4.156435|
|         211|   -5.362244|   -3.588566|   -4.157817|
|         212|   -5.363110|   -3.586136|   -4.159003|
|         213|   -5.364049|   -3.583707|   -4.160007|
|         214|   -5.365053|   -3.581279|   -4.160847|
|         215|   -5.366116|   -3.578854|   -4.161551|
|         216|   -5.367228|   -3.576437|   -4.162150|
|         217|   -5.368378|   -3.574031|   -4.162671|
|         218|   -5.369556|   -3.571642|   -4.163137|
|         219|   -5.370747|   -3.569277|   -4.163575|
|         220|   -5.371941|   -3.566940|   -4.163985|
|         221|   -5.373124|   -3.564639|   -4.164401|
|         222|   -5.374287|   -3.562376|   -4.164820|
|         223|   -5.375417|   -3.560157|   -4.165174|
|         224|   -5.376507|   -3.557984|   -4.165493|
|         225|   -5.377548|   -3.555858|   -4.165758|
|         226|   -5.378535|   -3.553778|   -4.165911|
|         227|   -5.379466|   -3.551745|   -4.165923|
|         228|   -5.380337|   -3.549753|   -4.165765|
|         229|   -5.381149|   -3.547800|   -4.165391|
|         230|   -5.381904|   -3.545879|   -4.164760|
|         231|   -5.382605|   -3.543984|   -4.163843|
|         232|   -5.383254|   -3.542109|   -4.162616|
|         233|   -5.383858|   -3.540246|   -4.161062|
|         234|   -5.384421|   -3.538388|   -4.159171|
|         235|   -5.384947|   -3.536528|   -4.156960|
|         236|   -5.385443|   -3.534659|   -4.154443|
|         237|   -5.385912|   -3.532776|   -4.151651|
|         238|   -5.386359|   -3.530873|   -4.148630|
|         239|   -5.386786|   -3.528946|   -4.145427|
|         240|   -5.387197|   -3.526993|   -4.142085|
|         241|   -5.387592|   -3.525012|   -4.138675|
|         242|   -5.387973|   -3.523002|   -4.135262|
|         243|   -5.388341|   -3.520964|   -4.131899|
|         244|   -5.388697|   -3.518900|   -4.128585|
|         245|   -5.389039|   -3.516812|   -4.125418|
|         246|   -5.389370|   -3.514703|   -4.122446|
|         247|   -5.389687|   -3.512578|   -4.119668|
|         248|   -5.389993|   -3.510441|   -4.117114|
|         249|   -5.390288|   -3.508296|   -4.114798|
|         250|   -5.390573|   -3.506150|   -4.112722|
|         251|   -5.390850|   -3.504005|   -4.110885|
|         252|   -5.391120|   -3.501868|   -4.109278|
|         253|   -5.391388|   -3.499743|   -4.107890|
|         254|   -5.391655|   -3.497632|   -4.106705|
|         255|   -5.391926|   -3.495539|   -4.105703|
|         256|   -5.392205|   -3.493467|   -4.104864|
|         257|   -5.392496|   -3.491417|   -4.104166|
|         258|   -5.392803|   -3.489390|   -4.103590|
|         259|   -5.393130|   -3.487387|   -4.103115|
|         260|   -5.393483|   -3.485408|   -4.102723|
|         261|   -5.393865|   -3.483452|   -4.102397|
|         262|   -5.394279|   -3.481517|   -4.102124|
|         263|   -5.394728|   -3.479603|   -4.101892|
|         264|   -5.395216|   -3.477707|   -4.101691|
|         265|   -5.395744|   -3.475830|   -4.101515|
|         266|   -5.396312|   -3.473968|   -4.101356|
|         267|   -5.396921|   -3.472121|   -4.101210|
|         268|   -5.397570|   -3.470288|   -4.101073|
|         269|   -5.398258|   -3.468468|   -4.100942|
|         270|   -5.398981|   -3.466662|   -4.100812|
|         271|   -5.399737|   -3.464870|   -4.100681|
|         272|   -5.400521|   -3.463093|   -4.100543|
|         273|   -5.401329|   -3.461331|   -4.100395|
|         274|   -5.402156|   -3.459585|   -4.100231|
|         275|   -5.402995|   -3.457859|   -4.100044|
|         276|   -5.403843|   -3.456152|   -4.099827|
|         277|   -5.404693|   -3.454466|   -4.099571|
|         278|   -5.405540|   -3.452802|   -4.099269|
|         279|   -5.406379|   -3.451162|   -4.098912|
|         280|   -5.407206|   -3.449546|   -4.098491|
|         281|   -5.408018|   -3.447954|   -4.097997|
|         282|   -5.408810|   -3.446386|   -4.097423|
|         283|   -5.409582|   -3.444840|   -4.096769|
|         284|   -5.410330|   -3.443316|   -4.096019|
|         285|   -5.411056|   -3.441812|   -4.095169|
|         286|   -5.411757|   -3.440325|   -4.094218|
|         287|   -5.412436|   -3.438853|   -4.093186|
|         288|   -5.413092|   -3.437392|   -4.092050|
|         289|   -5.413729|   -3.435941|   -4.090811|
|         290|   -5.414347|   -3.434495|   -4.089469|
|         291|   -5.414949|   -3.433051|   -4.088037|
|         292|   -5.415539|   -3.431607|   -4.086522|
|         293|   -5.416118|   -3.430158|   -4.084931|
|         294|   -5.416691|   -3.428704|   -4.083273|
|         295|   -5.417258|   -3.427241|   -4.081532|
|         296|   -5.417823|   -3.425767|   -4.079734|
|         297|   -5.418390|   -3.424281|   -4.077881|
|         298|   -5.418958|   -3.422782|   -4.075987|
|         299|   -5.419532|   -3.421269|   -4.074059|
|         300|   -5.420112|   -3.419742|   -4.072102|
|         301|   -5.420699|   -3.418201|   -4.070122|
|         302|   -5.421295|   -3.416648|   -4.068135|
|         303|   -5.421900|   -3.415083|   -4.066154|
|         304|   -5.422513|   -3.413507|   -4.064192|
|         305|   -5.423136|   -3.411921|   -4.062262|
|         306|   -5.423767|   -3.410329|   -4.060379|
|         307|   -5.424406|   -3.408731|   -4.058558|
|         308|   -5.425052|   -3.407129|   -4.056816|
|         309|   -5.425705|   -3.405525|   -4.055169|
|         310|   -5.426362|   -3.403921|   -4.053631|
|         311|   -5.427024|   -3.402318|   -4.052217|
|         312|   -5.427688|   -3.400719|   -4.050941|
|         313|   -5.428355|   -3.399123|   -4.049814|
|         314|   -5.429023|   -3.397533|   -4.048845|
|         315|   -5.429691|   -3.395950|   -4.048040|
|         316|   -5.430360|   -3.394374|   -4.047402|
|         317|   -5.431028|   -3.392806|   -4.046932|
|         318|   -5.431697|   -3.391246|   -4.046626|
|         319|   -5.432366|   -3.389694|   -4.046477|
|         320|   -5.433035|   -3.388152|   -4.046475|
|         321|   -5.433706|   -3.386618|   -4.046604|
|         322|   -5.434379|   -3.385093|   -4.046848|
|         323|   -5.435055|   -3.383577|   -4.047187|
|         324|   -5.435734|   -3.382070|   -4.047596|
|         325|   -5.436418|   -3.380570|   -4.048051|
|         326|   -5.437108|   -3.379079|   -4.048526|
|         327|   -5.437804|   -3.377596|   -4.048995|
|         328|   -5.438508|   -3.376121|   -4.049431|
|         329|   -5.439220|   -3.374655|   -4.049808|
|         330|   -5.439939|   -3.373196|   -4.050104|
|         331|   -5.440667|   -3.371745|   -4.050299|
|         332|   -5.441403|   -3.370302|   -4.050374|
|         333|   -5.442146|   -3.368868|   -4.050317|
|         334|   -5.442897|   -3.367442|   -4.050119|
|         335|   -5.443653|   -3.366025|   -4.049773|
|         336|   -5.444415|   -3.364617|   -4.049279|
|         337|   -5.445181|   -3.363218|   -4.048639|
|         338|   -5.445949|   -3.361829|   -4.047861|
|         339|   -5.446719|   -3.360450|   -4.046954|
|         340|   -5.447487|   -3.359080|   -4.045928|
|         341|   -5.448254|   -3.357722|   -4.044797|
|         342|   -5.449017|   -3.356373|   -4.043576|
|         343|   -5.449775|   -3.355036|   -4.042278|
|         344|   -5.450526|   -3.353709|   -4.040917|
|         345|   -5.451270|   -3.352392|   -4.039508|
|         346|   -5.452006|   -3.351087|   -4.038061|
|         347|   -5.452732|   -3.349792|   -4.036587|
|         348|   -5.453449|   -3.348507|   -4.035097|
|         349|   -5.454156|   -3.347232|   -4.033595|
|         350|   -5.454854|   -3.345966|   -4.032087|
|         351|   -5.455541|   -3.344710|   -4.030578|
|         352|   -5.456220|   -3.343462|   -4.029071|
|         353|   -5.456889|   -3.342223|   -4.027568|
|         354|   -5.457550|   -3.340990|   -4.026070|
|         355|   -5.458204|   -3.339765|   -4.024577|
|         356|   -5.458851|   -3.338546|   -4.023091|
|         357|   -5.459492|   -3.337332|   -4.021613|
|         358|   -5.460128|   -3.336124|   -4.020148|
|         359|   -5.460759|   -3.334921|   -4.018695|
|         360|   -5.461386|   -3.333722|   -4.017257|
|         361|   -5.462009|   -3.332527|   -4.015841|
|         362|   -5.462629|   -3.331335|   -4.014452|
|         363|   -5.463245|   -3.330147|   -4.013095|
|         364|   -5.463857|   -3.328963|   -4.011778|
|         365|   -5.464465|   -3.327782|   -4.010506|
|         366|   -5.465070|   -3.326605|   -4.009287|
|         367|   -5.465669|   -3.325432|   -4.008079|
|         368|   -5.466264|   -3.324262|   -4.006869|
|         369|   -5.466853|   -3.323096|   -4.005756|
|         370|   -5.467434|   -3.321933|   -4.004723|
|         371|   -5.468007|   -3.320775|   -4.003765|
|         372|   -5.468572|   -3.319622|   -4.002885|
|         373|   -5.469129|   -3.318473|   -4.002083|
|         374|   -5.469676|   -3.317330|   -4.001357|
|         375|   -5.470215|   -3.316191|   -4.000702|
|         376|   -5.470745|   -3.315059|   -4.000111|
|         377|   -5.471266|   -3.313932|   -3.999573|
|         378|   -5.471778|   -3.312812|   -3.999078|
|         379|   -5.472282|   -3.311697|   -3.998612|
|         380|   -5.472779|   -3.310588|   -3.998161|
|         381|   -5.473269|   -3.309486|   -3.997712|
|         382|   -5.473753|   -3.308389|   -3.997248|
|         383|   -5.474232|   -3.307299|   -3.996755|
|         384|   -5.474707|   -3.306214|   -3.996217|
|         385|   -5.475179|   -3.305134|   -3.995621|
|         386|   -5.475649|   -3.304060|   -3.994954|
|         387|   -5.476119|   -3.302992|   -3.994204|
|         388|   -5.476588|   -3.301928|   -3.993362|
|         389|   -5.477059|   -3.300870|   -3.992420|
|         390|   -5.477531|   -3.299816|   -3.991371|
|         391|   -5.478005|   -3.298768|   -3.990212|
|         392|   -5.478482|   -3.297724|   -3.988940|
|         393|   -5.478961|   -3.296686|   -3.987555|
|         394|   -5.479443|   -3.295652|   -3.986058|
|         395|   -5.479928|   -3.294624|   -3.984452|
|         396|   -5.480416|   -3.293601|   -3.982740|
|         397|   -5.480906|   -3.292584|   -3.980929|
|         398|   -5.481398|   -3.291573|   -3.979022|
|         399|   -5.481891|   -3.290568|   -3.977026|
|         400|   -5.482386|   -3.289569|   -3.974946|
|         401|   -5.482882|   -3.288576|   -3.972789|
|         402|   -5.483378|   -3.287590|   -3.970561|
|         403|   -5.483874|   -3.286612|   -3.968266|
|         404|   -5.484370|   -3.285640|   -3.965908|
|         405|   -5.484866|   -3.284675|   -3.963493|
|         406|   -5.485360|   -3.283717|   -3.961024|
|         407|   -5.485854|   -3.282766|   -3.958506|
|         408|   -5.486346|   -3.281822|   -3.955941|
|         409|   -5.486836|   -3.280885|   -3.953334|
|         410|   -5.487325|   -3.279954|   -3.950687|
|         411|   -5.487811|   -3.279030|   -3.948006|
|         412|   -5.488296|   -3.278112|   -3.945294|
|         413|   -5.488779|   -3.277199|   -3.942555|
|         414|   -5.489259|   -3.276292|   -3.939797|
|         415|   -5.489736|   -3.275390|   -3.937023|
|         416|   -5.490211|   -3.274492|   -3.934241|
|         417|   -5.490683|   -3.273599|   -3.931457|
|         418|   -5.491152|   -3.272709|   -3.928678|
|         419|   -5.491617|   -3.271823|   -3.925911|
|         420|   -5.492078|   -3.270941|   -3.923164|
|         421|   -5.492535|   -3.270061|   -3.920443|
|         422|   -5.492988|   -3.269184|   -3.917755|
|         423|   -5.493435|   -3.268309|   -3.915100|
|         424|   -5.493878|   -3.267437|   -3.912490|
|         425|   -5.494314|   -3.266567|   -3.909929|
|         426|   -5.494745|   -3.265698|   -3.907419|
|         427|   -5.495170|   -3.264832|   -3.904963|
|         428|   -5.495588|   -3.263968|   -3.902562|
|         429|   -5.496000|   -3.263107|   -3.900214|
|         430|   -5.496405|   -3.262247|   -3.897919|
|         431|   -5.496805|   -3.261390|   -3.895674|
|         432|   -5.497198|   -3.260535|   -3.893473|
|         433|   -5.497585|   -3.259683|   -3.891311|
|         434|   -5.497967|   -3.258834|   -3.889182|
|         435|   -5.498344|   -3.257988|   -3.887078|
|         436|   -5.498716|   -3.257146|   -3.884993|
|         437|   -5.499085|   -3.256306|   -3.882919|
|         438|   -5.499450|   -3.255471|   -3.880848|
|         439|   -5.499812|   -3.254639|   -3.878771|
|         440|   -5.500171|   -3.253811|   -3.876682|
|         441|   -5.500529|   -3.252988|   -3.874575|
|         442|   -5.500886|   -3.252169|   -3.872441|
|         443|   -5.501242|   -3.251354|   -3.870278|
|         444|   -5.501597|   -3.250545|   -3.868079|
|         445|   -5.501953|   -3.249740|   -3.865842|
|         446|   -5.502309|   -3.248941|   -3.863565|
|         447|   -5.502665|   -3.248147|   -3.861245|
|         448|   -5.503021|   -3.247359|   -3.858882|
|         449|   -5.503378|   -3.246576|   -3.856475|
|         450|   -5.503735|   -3.245799|   -3.854027|
|         451|   -5.504092|   -3.245028|   -3.851538|
|         452|   -5.504449|   -3.244263|   -3.849011|
|         453|   -5.504806|   -3.243504|   -3.846448|
|         454|   -5.505162|   -3.242751|   -3.843851|
|         455|   -5.505517|   -3.242005|   -3.841222|
|         456|   -5.505870|   -3.241265|   -3.838566|
|         457|   -5.506222|   -3.240532|   -3.835884|
|         458|   -5.506571|   -3.239805|   -3.833180|
|         459|   -5.506918|   -3.239085|   -3.830455|
|         460|   -5.507262|   -3.238372|   -3.827712|
|         461|   -5.507603|   -3.237664|   -3.824954|
|         462|   -5.507940|   -3.236963|   -3.822182|
|         463|   -5.508273|   -3.236267|   -3.819398|
|         464|   -5.508603|   -3.235578|   -3.816603|
|         465|   -5.508928|   -3.234893|   -3.813801|
|         466|   -5.509248|   -3.234214|   -3.810993|
|         467|   -5.509564|   -3.233540|   -3.808180|
|         468|   -5.509875|   -3.232871|   -3.805364|
|         469|   -5.510181|   -3.232205|   -3.802548|
|         470|   -5.510481|   -3.231544|   -3.799731|
|         471|   -5.510776|   -3.230887|   -3.796918|
|         472|   -5.511066|   -3.230232|   -3.794110|
|         473|   -5.511349|   -3.229581|   -3.791308|
|         474|   -5.511627|   -3.228933|   -3.788516|
|         475|   -5.511899|   -3.228287|   -3.785734|
|         476|   -5.512164|   -3.227643|   -3.782967|
|         477|   -5.512422|   -3.227001|   -3.780214|
|         478|   -5.512674|   -3.226360|   -3.777480|
|         479|   -5.512920|   -3.225722|   -3.774767|
|         480|   -5.513158|   -3.225084|   -3.772075|
|         481|   -5.513389|   -3.224448|   -3.769407|
|         482|   -5.513614|   -3.223812|   -3.766763|
|         483|   -5.513831|   -3.223178|   -3.764145|
|         484|   -5.514042|   -3.222544|   -3.761553|
|         485|   -5.514246|   -3.221912|   -3.758988|
|         486|   -5.514443|   -3.221281|   -3.756448|
|         487|   -5.514634|   -3.220650|   -3.753934|
|         488|   -5.514819|   -3.220022|   -3.751445|
|         489|   -5.514998|   -3.219394|   -3.748979|
|         490|   -5.515172|   -3.218768|   -3.746534|
|         491|   -5.515341|   -3.218143|   -3.744110|
|         492|   -5.515507|   -3.217519|   -3.741703|
|         493|   -5.515669|   -3.216898|   -3.739312|
|         494|   -5.515828|   -3.216279|   -3.736935|
|         495|   -5.515986|   -3.215662|   -3.734570|
|         496|   -5.516142|   -3.215047|   -3.732215|
|         497|   -5.516297|   -3.214435|   -3.729869|
|         498|   -5.516453|   -3.213826|   -3.727531|
|         499|   -5.516610|   -3.213220|   -3.725198|
|         500|   -5.516769|   -3.212616|   -3.722870|
|         501|   -5.516930|   -3.212016|   -3.720546|
|         502|   -5.517095|   -3.211418|   -3.718225|
|         503|   -5.517263|   -3.210824|   -3.715908|
|         504|   -5.517437|   -3.210233|   -3.713593|
|         505|   -5.517615|   -3.209645|   -3.711281|
|         506|   -5.517800|   -3.209060|   -3.708972|
|         507|   -5.517991|   -3.208478|   -3.706666|
|         508|   -5.518189|   -3.207899|   -3.704364|
|         509|   -5.518394|   -3.207324|   -3.702067|
|         510|   -5.518607|   -3.206751|   -3.699775|
|         511|   -5.518830|   -3.206181|   -3.697490|
|         512|   -5.519061|   -3.205613|   -3.695212|
|         513|   -5.519301|   -3.205048|   -3.692944|
|         514|   -5.519552|   -3.204484|   -3.690685|
|         515|   -5.519812|   -3.203922|   -3.688438|
|         516|   -5.520084|   -3.203361|   -3.686203|
|         517|   -5.520367|   -3.202801|   -3.683980|
|         518|   -5.520661|   -3.202241|   -3.681771|
|         519|   -5.520968|   -3.201681|   -3.679575|
|         520|   -5.521287|   -3.201120|   -3.677393|
|         521|   -5.521618|   -3.200557|   -3.675224|
|         522|   -5.521963|   -3.199993|   -3.673070|
|         523|   -5.522322|   -3.199426|   -3.670930|
|         524|   -5.522694|   -3.198857|   -3.668804|
|         525|   -5.523080|   -3.198283|   -3.666692|
|         526|   -5.523480|   -3.197705|   -3.664596|
|         527|   -5.523895|   -3.197123|   -3.662515|
|         528|   -5.524325|   -3.196536|   -3.660451|
|         529|   -5.524770|   -3.195943|   -3.658405|
|         530|   -5.525230|   -3.195345|   -3.656379|
|         531|   -5.525705|   -3.194740|   -3.654375|
|         532|   -5.526195|   -3.194130|   -3.652394|
|         533|   -5.526701|   -3.193513|   -3.650439|
|         534|   -5.527222|   -3.192890|   -3.648514|
|         535|   -5.527758|   -3.192261|   -3.646621|
|         536|   -5.528309|   -3.191625|   -3.644761|
|         537|   -5.528874|   -3.190984|   -3.642937|
|         538|   -5.529455|   -3.190337|   -3.641151|
|         539|   -5.530049|   -3.189684|   -3.639402|
|         540|   -5.530658|   -3.189026|   -3.637691|
|         541|   -5.531280|   -3.188363|   -3.636016|
|         542|   -5.531915|   -3.187695|   -3.634377|
|         543|   -5.532563|   -3.187023|   -3.632769|
|         544|   -5.533224|   -3.186346|   -3.631191|
|         545|   -5.533896|   -3.185664|   -3.629639|
|         546|   -5.534579|   -3.184979|   -3.628108|
|         547|   -5.535272|   -3.184291|   -3.626594|
|         548|   -5.535976|   -3.183599|   -3.625095|
|         549|   -5.536689|   -3.182904|   -3.623606|
|         550|   -5.537411|   -3.182207|   -3.622125|
|         551|   -5.538143|   -3.181507|   -3.620649|
|         552|   -5.538883|   -3.180805|   -3.619176|
|         553|   -5.539632|   -3.180103|   -3.617706|
|         554|   -5.540390|   -3.179399|   -3.616237|
|         555|   -5.541155|   -3.178695|   -3.614771|
|         556|   -5.541929|   -3.177991|   -3.613308|
|         557|   -5.542711|   -3.177287|   -3.611851|
|         558|   -5.543501|   -3.176584|   -3.610400|
|         559|   -5.544300|   -3.175882|   -3.608956|
|         560|   -5.545108|   -3.175182|   -3.607521|
|         561|   -5.545925|   -3.174484|   -3.606096|
|         562|   -5.546753|   -3.173787|   -3.604683|
|         563|   -5.547590|   -3.173092|   -3.603282|
|         564|   -5.548439|   -3.172398|   -3.601894|
|         565|   -5.549298|   -3.171706|   -3.600521|
|         566|   -5.550169|   -3.171014|   -3.599164|
|         567|   -5.551051|   -3.170324|   -3.597823|
|         568|   -5.551946|   -3.169635|   -3.596498|
|         569|   -5.552854|   -3.168947|   -3.595192|
|         570|   -5.553774|   -3.168260|   -3.593903|
|         571|   -5.554707|   -3.167573|   -3.592633|
|         572|   -5.555654|   -3.166886|   -3.591382|
|         573|   -5.556614|   -3.166200|   -3.590150|
|         574|   -5.557587|   -3.165515|   -3.588938|
|         575|   -5.558574|   -3.164830|   -3.587744|
|         576|   -5.559574|   -3.164145|   -3.586569|
|         577|   -5.560587|   -3.163462|   -3.585413|
|         578|   -5.561613|   -3.162779|   -3.584275|
|         579|   -5.562652|   -3.162098|   -3.583157|
|         580|   -5.563702|   -3.161419|   -3.582057|
|         581|   -5.564765|   -3.160741|   -3.580975|
|         582|   -5.565839|   -3.160065|   -3.579912|
|         583|   -5.566924|   -3.159391|   -3.578868|
|         584|   -5.568020|   -3.158719|   -3.577842|
|         585|   -5.569125|   -3.158051|   -3.576835|
|         586|   -5.570239|   -3.157384|   -3.575847|
|         587|   -5.571362|   -3.156721|   -3.574876|
|         588|   -5.572494|   -3.156061|   -3.573924|
|         589|   -5.573633|   -3.155403|   -3.572989|
|         590|   -5.574779|   -3.154749|   -3.572071|
|         591|   -5.575933|   -3.154097|   -3.571169|
|         592|   -5.577093|   -3.153448|   -3.570283|
|         593|   -5.578260|   -3.152802|   -3.569412|
|         594|   -5.579434|   -3.152158|   -3.568555|
|         595|   -5.580613|   -3.151517|   -3.567711|
|         596|   -5.581800|   -3.150879|   -3.566880|
|         597|   -5.582992|   -3.150243|   -3.566063|
|         598|   -5.584191|   -3.149610|   -3.565257|
|         599|   -5.585397|   -3.148978|   -3.564464|
|         600|   -5.586611|   -3.148349|   -3.563682|
|         601|   -5.587832|   -3.147723|   -3.562912|
|         602|   -5.589061|   -3.147098|   -3.562153|
|         603|   -5.590298|   -3.146475|   -3.561404|
|         604|   -5.591545|   -3.145853|   -3.560664|
|         605|   -5.592801|   -3.145233|   -3.559933|
|         606|   -5.594068|   -3.144614|   -3.559209|
|         607|   -5.595345|   -3.143996|   -3.558491|
|         608|   -5.596635|   -3.143378|   -3.557778|
|         609|   -5.597936|   -3.142761|   -3.557069|
|         610|   -5.599251|   -3.142143|   -3.556364|
|         611|   -5.600579|   -3.141525|   -3.555662|
|         612|   -5.601921|   -3.140907|   -3.554963|
|         613|   -5.603279|   -3.140289|   -3.554267|
|         614|   -5.604651|   -3.139670|   -3.553576|
|         615|   -5.606040|   -3.139052|   -3.552889|
|         616|   -5.607446|   -3.138434|   -3.552210|
|         617|   -5.608868|   -3.137818|   -3.551538|
|         618|   -5.610308|   -3.137202|   -3.550877|
|         619|   -5.611766|   -3.136589|   -3.550227|
|         620|   -5.613242|   -3.135978|   -3.549590|
|         621|   -5.614736|   -3.135370|   -3.548968|
|         622|   -5.616248|   -3.134765|   -3.548363|
|         623|   -5.617778|   -3.134165|   -3.547775|
|         624|   -5.619325|   -3.133570|   -3.547205|
|         625|   -5.620890|   -3.132980|   -3.546654|
|         626|   -5.622471|   -3.132395|   -3.546122|
|         627|   -5.624069|   -3.131817|   -3.545610|
|         628|   -5.625682|   -3.131244|   -3.545118|
|         629|   -5.627310|   -3.130678|   -3.544645|
|         630|   -5.628952|   -3.130119|   -3.544191|
|         631|   -5.630606|   -3.129566|   -3.543756|
|         632|   -5.632272|   -3.129020|   -3.543339|
|         633|   -5.633950|   -3.128481|   -3.542940|
|         634|   -5.635637|   -3.127948|   -3.542558|
|         635|   -5.637333|   -3.127422|   -3.542192|
|         636|   -5.639036|   -3.126903|   -3.541841|
|         637|   -5.640747|   -3.126390|   -3.541506|
|         638|   -5.642463|   -3.125884|   -3.541184|
|         639|   -5.644184|   -3.125384|   -3.540876|
|         640|   -5.645909|   -3.124890|   -3.540581|
|         641|   -5.647637|   -3.124403|   -3.540298|
|         642|   -5.649366|   -3.123922|   -3.540028|
|         643|   -5.651097|   -3.123447|   -3.539769|
|         644|   -5.652828|   -3.122978|   -3.539521|
|         645|   -5.654559|   -3.122515|   -3.539285|
|         646|   -5.656289|   -3.122057|   -3.539059|
|         647|   -5.658018|   -3.121605|   -3.538846|
|         648|   -5.659746|   -3.121159|   -3.538643|
|         649|   -5.661472|   -3.120718|   -3.538451|
|         650|   -5.663196|   -3.120282|   -3.538271|
|         651|   -5.664918|   -3.119852|   -3.538102|
|         652|   -5.666639|   -3.119426|   -3.537944|
|         653|   -5.668358|   -3.119006|   -3.537800|
|         654|   -5.670076|   -3.118590|   -3.537666|
|         655|   -5.671794|   -3.118179|   -3.537546|
|         656|   -5.673512|   -3.117772|   -3.537439|
|         657|   -5.675230|   -3.117371|   -3.537344|
|         658|   -5.676950|   -3.116973|   -3.537264|
|         659|   -5.678673|   -3.116581|   -3.537196|
|         660|   -5.680399|   -3.116192|   -3.537142|
|         661|   -5.682130|   -3.115808|   -3.537102|
|         662|   -5.683866|   -3.115428|   -3.537075|
|         663|   -5.685608|   -3.115052|   -3.537061|
|         664|   -5.687358|   -3.114680|   -3.537061|
|         665|   -5.689116|   -3.114313|   -3.537072|
|         666|   -5.690883|   -3.113949|   -3.537098|
|         667|   -5.692660|   -3.113589|   -3.537134|
|         668|   -5.694448|   -3.113233|   -3.537182|
|         669|   -5.696248|   -3.112880|   -3.537241|
|         670|   -5.698061|   -3.112532|   -3.537309|
|         671|   -5.699886|   -3.112187|   -3.537388|
|         672|   -5.701725|   -3.111845|   -3.537475|
|         673|   -5.703578|   -3.111507|   -3.537569|
|         674|   -5.705445|   -3.111173|   -3.537671|
|         675|   -5.707327|   -3.110841|   -3.537778|
|         676|   -5.709224|   -3.110514|   -3.537892|
|         677|   -5.711136|   -3.110189|   -3.538010|
|         678|   -5.713063|   -3.109868|   -3.538132|
|         679|   -5.715006|   -3.109549|   -3.538257|
|         680|   -5.716964|   -3.109234|   -3.538384|
|         681|   -5.718937|   -3.108923|   -3.538514|
|         682|   -5.720926|   -3.108614|   -3.538645|
|         683|   -5.722929|   -3.108308|   -3.538777|
|         684|   -5.724948|   -3.108006|   -3.538910|
|         685|   -5.726983|   -3.107707|   -3.539043|
|         686|   -5.729031|   -3.107410|   -3.539176|
|         687|   -5.731095|   -3.107117|   -3.539308|
|         688|   -5.733174|   -3.106827|   -3.539440|
|         689|   -5.735267|   -3.106540|   -3.539572|
|         690|   -5.737375|   -3.106256|   -3.539703|
|         691|   -5.739497|   -3.105975|   -3.539832|
|         692|   -5.741634|   -3.105697|   -3.539960|
|         693|   -5.743784|   -3.105421|   -3.540086|
|         694|   -5.745949|   -3.105149|   -3.540211|
|         695|   -5.748128|   -3.104880|   -3.540333|
|         696|   -5.750320|   -3.104614|   -3.540454|
|         697|   -5.752526|   -3.104350|   -3.540572|
|         698|   -5.754746|   -3.104090|   -3.540688|
|         699|   -5.756979|   -3.103833|   -3.540803|
|         700|   -5.759225|   -3.103578|   -3.540914|
|         701|   -5.761484|   -3.103327|   -3.541023|
|         702|   -5.763755|   -3.103078|   -3.541130|
|         703|   -5.766039|   -3.102833|   -3.541234|
|         704|   -5.768335|   -3.102590|   -3.541337|
|         705|   -5.770642|   -3.102351|   -3.541436|
|         706|   -5.772961|   -3.102114|   -3.541535|
|         707|   -5.775291|   -3.101880|   -3.541631|
|         708|   -5.777632|   -3.101649|   -3.541724|
|         709|   -5.779982|   -3.101421|   -3.541817|
|         710|   -5.782342|   -3.101196|   -3.541907|
|         711|   -5.784712|   -3.100974|   -3.541996|
|         712|   -5.787091|   -3.100755|   -3.542084|
|         713|   -5.789478|   -3.100539|   -3.542170|
|         714|   -5.791873|   -3.100326|   -3.542256|
|         715|   -5.794275|   -3.100116|   -3.542341|
|         716|   -5.796685|   -3.099909|   -3.542425|
|         717|   -5.799102|   -3.099705|   -3.542509|
|         718|   -5.801525|   -3.099504|   -3.542593|
|         719|   -5.803954|   -3.099306|   -3.542676|
|         720|   -5.806388|   -3.099111|   -3.542760|
|         721|   -5.808828|   -3.098919|   -3.542844|
|         722|   -5.811272|   -3.098730|   -3.542928|
|         723|   -5.813722|   -3.098544|   -3.543014|
|         724|   -5.816176|   -3.098362|   -3.543100|
|         725|   -5.818633|   -3.098182|   -3.543188|
|         726|   -5.821096|   -3.098006|   -3.543278|
|         727|   -5.823562|   -3.097832|   -3.543369|
|         728|   -5.826031|   -3.097662|   -3.543463|
|         729|   -5.828503|   -3.097494|   -3.543560|
|         730|   -5.830979|   -3.097330|   -3.543661|
|         731|   -5.833458|   -3.097169|   -3.543767|
|         732|   -5.835939|   -3.097010|   -3.543876|
|         733|   -5.838423|   -3.096855|   -3.543991|
|         734|   -5.840909|   -3.096702|   -3.544111|
|         735|   -5.843397|   -3.096552|   -3.544237|
|         736|   -5.845887|   -3.096405|   -3.544370|
|         737|   -5.848378|   -3.096261|   -3.544511|
|         738|   -5.850870|   -3.096120|   -3.544659|
|         739|   -5.853363|   -3.095981|   -3.544817|
|         740|   -5.855856|   -3.095846|   -3.544983|
|         741|   -5.858349|   -3.095713|   -3.545161|
|         742|   -5.860842|   -3.095582|   -3.545350|
|         743|   -5.863333|   -3.095455|   -3.545550|
|         744|   -5.865822|   -3.095330|   -3.545763|
|         745|   -5.868308|   -3.095208|   -3.545988|
|         746|   -5.870792|   -3.095088|   -3.546226|
|         747|   -5.873271|   -3.094971|   -3.546478|
|         748|   -5.875746|   -3.094857|   -3.546744|
|         749|   -5.878215|   -3.094745|   -3.547025|
|         750|   -5.880677|   -3.094637|   -3.547321|
|         751|   -5.883132|   -3.094531|   -3.547633|
|         752|   -5.885578|   -3.094429|   -3.547960|
|         753|   -5.888015|   -3.094329|   -3.548300|
|         754|   -5.890440|   -3.094232|   -3.548654|
|         755|   -5.892852|   -3.094138|   -3.549021|
|         756|   -5.895251|   -3.094046|   -3.549400|
|         757|   -5.897635|   -3.093958|   -3.549790|
|         758|   -5.900003|   -3.093872|   -3.550191|
|         759|   -5.902353|   -3.093790|   -3.550601|
|         760|   -5.904684|   -3.093711|   -3.551019|
|         761|   -5.906994|   -3.093635|   -3.551444|
|         762|   -5.909281|   -3.093562|   -3.551873|
|         763|   -5.911545|   -3.093493|   -3.552307|
|         764|   -5.913783|   -3.093427|   -3.552743|
|         765|   -5.915994|   -3.093365|   -3.553180|
|         766|   -5.918180|   -3.093307|   -3.553617|
|         767|   -5.920335|   -3.093251|   -3.554050|
|         768|   -5.922459|   -3.093199|   -3.554480|
|         769|   -5.924552|   -3.093151|   -3.554905|
|         770|   -5.926615|   -3.093106|   -3.555324|
|         771|   -5.928643|   -3.093064|   -3.555735|
|         772|   -5.930634|   -3.093026|   -3.556138|
|         773|   -5.932587|   -3.092992|   -3.556531|
|         774|   -5.934499|   -3.092961|   -3.556912|
|         775|   -5.936369|   -3.092934|   -3.557283|
|         776|   -5.938194|   -3.092910|   -3.557643|
|         777|   -5.939973|   -3.092890|   -3.557991|
|         778|   -5.941704|   -3.092874|   -3.558328|
|         779|   -5.943386|   -3.092861|   -3.558657|
|         780|   -5.945016|   -3.092852|   -3.558975|
|         781|   -5.946593|   -3.092847|   -3.559285|
|         782|   -5.948117|   -3.092846|   -3.559588|
|         783|   -5.949585|   -3.092848|   -3.559885|
|         784|   -5.950996|   -3.092854|   -3.560178|
|         785|   -5.952350|   -3.092864|   -3.560468|
|         786|   -5.953644|   -3.092877|   -3.560757|
|         787|   -5.954877|   -3.092895|   -3.561047|
|         788|   -5.956049|   -3.092916|   -3.561340|
|         789|   -5.957157|   -3.092942|   -3.561640|
|         790|   -5.958201|   -3.092972|   -3.561947|
|         791|   -5.959181|   -3.093006|   -3.562263|
|         792|   -5.960094|   -3.093044|   -3.562591|
|         793|   -5.960940|   -3.093087|   -3.562933|
|         794|   -5.961718|   -3.093134|   -3.563291|
|         795|   -5.962428|   -3.093187|   -3.563664|
|         796|   -5.963067|   -3.093244|   -3.564054|
|         797|   -5.963636|   -3.093306|   -3.564462|
|         798|   -5.964133|   -3.093372|   -3.564888|
|         799|   -5.964557|   -3.093444|   -3.565330|
|         800|   -5.964910|   -3.093521|   -3.565790|
|         801|   -5.965189|   -3.093603|   -3.566267|
|         802|   -5.965394|   -3.093690|   -3.566758|
|         803|   -5.965526|   -3.093783|   -3.567263|
|         804|   -5.965584|   -3.093881|   -3.567781|
|         805|   -5.965569|   -3.093984|   -3.568308|
|         806|   -5.965479|   -3.094093|   -3.568844|
|         807|   -5.965317|   -3.094207|   -3.569386|
|         808|   -5.965081|   -3.094326|   -3.569932|
|         809|   -5.964773|   -3.094451|   -3.570481|
|         810|   -5.964393|   -3.094581|   -3.571029|
|         811|   -5.963941|   -3.094716|   -3.571575|
|         812|   -5.963418|   -3.094856|   -3.572118|
|         813|   -5.962825|   -3.095002|   -3.572656|
|         814|   -5.962163|   -3.095152|   -3.573188|
|         815|   -5.961433|   -3.095307|   -3.573712|
|         816|   -5.960635|   -3.095467|   -3.574228|
|         817|   -5.959773|   -3.095632|   -3.574735|
|         818|   -5.958845|   -3.095801|   -3.575232|
|         819|   -5.957855|   -3.095974|   -3.575719|
|         820|   -5.956802|   -3.096152|   -3.576195|
|         821|   -5.955689|   -3.096334|   -3.576662|
|         822|   -5.954516|   -3.096519|   -3.577119|
|         823|   -5.953286|   -3.096709|   -3.577568|
|         824|   -5.951999|   -3.096904|   -3.578009|
|         825|   -5.950657|   -3.097102|   -3.578445|
|         826|   -5.949261|   -3.097304|   -3.578874|
|         827|   -5.947813|   -3.097510|   -3.579298|
|         828|   -5.946313|   -3.097720|   -3.579717|
|         829|   -5.944763|   -3.097934|   -3.580131|
|         830|   -5.943164|   -3.098152|   -3.580542|
|         831|   -5.941518|   -3.098374|   -3.580949|
|         832|   -5.939825|   -3.098600|   -3.581354|
|         833|   -5.938087|   -3.098831|   -3.581756|
|         834|   -5.936307|   -3.099065|   -3.582156|
|         835|   -5.934484|   -3.099304|   -3.582553|
|         836|   -5.932620|   -3.099547|   -3.582948|
|         837|   -5.930717|   -3.099794|   -3.583341|
|         838|   -5.928775|   -3.100046|   -3.583731|
|         839|   -5.926796|   -3.100302|   -3.584118|
|         840|   -5.924781|   -3.100562|   -3.584504|
|         841|   -5.922732|   -3.100827|   -3.584885|
|         842|   -5.920650|   -3.101097|   -3.585263|
|         843|   -5.918536|   -3.101371|   -3.585637|
|         844|   -5.916391|   -3.101650|   -3.586006|
|         845|   -5.914218|   -3.101934|   -3.586371|
|         846|   -5.912017|   -3.102223|   -3.586731|
|         847|   -5.909790|   -3.102516|   -3.587086|
|         848|   -5.907538|   -3.102815|   -3.587435|
|         849|   -5.905262|   -3.103118|   -3.587777|
|         850|   -5.902964|   -3.103427|   -3.588113|
|         851|   -5.900646|   -3.103740|   -3.588442|
|         852|   -5.898309|   -3.104059|   -3.588765|
|         853|   -5.895954|   -3.104383|   -3.589080|
|         854|   -5.893583|   -3.104711|   -3.589389|
|         855|   -5.891196|   -3.105046|   -3.589691|
|         856|   -5.888796|   -3.105385|   -3.589988|
|         857|   -5.886384|   -3.105729|   -3.590277|
|         858|   -5.883960|   -3.106079|   -3.590560|
|         859|   -5.881526|   -3.106433|   -3.590836|
|         860|   -5.879084|   -3.106793|   -3.591106|
|         861|   -5.876634|   -3.107158|   -3.591369|
|         862|   -5.874178|   -3.107528|   -3.591626|
|         863|   -5.871717|   -3.107903|   -3.591876|
|         864|   -5.869251|   -3.108283|   -3.592121|
|         865|   -5.866781|   -3.108668|   -3.592359|
|         866|   -5.864308|   -3.109058|   -3.592590|
|         867|   -5.861833|   -3.109453|   -3.592816|
|         868|   -5.859356|   -3.109851|   -3.593035|
|         869|   -5.856879|   -3.110255|   -3.593249|
|         870|   -5.854401|   -3.110662|   -3.593456|
|         871|   -5.851924|   -3.111074|   -3.593657|
|         872|   -5.849447|   -3.111489|   -3.593850|
|         873|   -5.846971|   -3.111909|   -3.594038|
|         874|   -5.844497|   -3.112331|   -3.594218|
|         875|   -5.842024|   -3.112757|   -3.594390|
|         876|   -5.839553|   -3.113187|   -3.594555|
|         877|   -5.837084|   -3.113619|   -3.594713|
|         878|   -5.834618|   -3.114054|   -3.594861|
|         879|   -5.832153|   -3.114493|   -3.595000|
|         880|   -5.829692|   -3.114934|   -3.595132|
|         881|   -5.827233|   -3.115377|   -3.595252|
|         882|   -5.824776|   -3.115823|   -3.595361|
|         883|   -5.822322|   -3.116271|   -3.595459|
|         884|   -5.819871|   -3.116720|   -3.595547|
|         885|   -5.817423|   -3.117172|   -3.595622|
|         886|   -5.814978|   -3.117626|   -3.595684|
|         887|   -5.812536|   -3.118080|   -3.595731|
|         888|   -5.810096|   -3.118536|   -3.595762|
|         889|   -5.807659|   -3.118992|   -3.595777|
|         890|   -5.805225|   -3.119450|   -3.595775|
|         891|   -5.802794|   -3.119908|   -3.595755|
|         892|   -5.800366|   -3.120367|   -3.595716|
|         893|   -5.797941|   -3.120825|   -3.595657|
|         894|   -5.795520|   -3.121284|   -3.595578|
|         895|   -5.793103|   -3.121742|   -3.595479|
|         896|   -5.790689|   -3.122201|   -3.595358|
|         897|   -5.788279|   -3.122658|   -3.595215|
|         898|   -5.785873|   -3.123116|   -3.595052|
|         899|   -5.783471|   -3.123572|   -3.594871|
|         900|   -5.781074|   -3.124026|   -3.594671|
|         901|   -5.778681|   -3.124479|   -3.594453|
|         902|   -5.776294|   -3.124930|   -3.594216|
|         903|   -5.773912|   -3.125378|   -3.593959|
|         904|   -5.771536|   -3.125824|   -3.593684|
|         905|   -5.769166|   -3.126268|   -3.593391|
|         906|   -5.766802|   -3.126708|   -3.593081|
|         907|   -5.764445|   -3.127146|   -3.592754|
|         908|   -5.762094|   -3.127581|   -3.592410|
|         909|   -5.759750|   -3.128012|   -3.592051|
|         910|   -5.757414|   -3.128441|   -3.591678|
|         911|   -5.755086|   -3.128865|   -3.591292|
|         912|   -5.752765|   -3.129285|   -3.590896|
|         913|   -5.750452|   -3.129701|   -3.590487|
|         914|   -5.748148|   -3.130112|   -3.590065|
|         915|   -5.745852|   -3.130519|   -3.589630|
|         916|   -5.743565|   -3.130920|   -3.589181|
|         917|   -5.741288|   -3.131317|   -3.588721|
|         918|   -5.739019|   -3.131708|   -3.588247|
|         919|   -5.736760|   -3.132094|   -3.587759|
|         920|   -5.734510|   -3.132473|   -3.587255|
|         921|   -5.732270|   -3.132847|   -3.586737|
|         922|   -5.730039|   -3.133215|   -3.586205|
|         923|   -5.727818|   -3.133576|   -3.585662|
|         924|   -5.725606|   -3.133932|   -3.585104|
|         925|   -5.723403|   -3.134280|   -3.584529|
|         926|   -5.721210|   -3.134623|   -3.583942|
|         927|   -5.719027|   -3.134959|   -3.583342|
|         928|   -5.716852|   -3.135288|   -3.582730|
|         929|   -5.714687|   -3.135611|   -3.582107|
|         930|   -5.712531|   -3.135926|   -3.581474|
|         931|   -5.710384|   -3.136234|   -3.580830|
|         932|   -5.708245|   -3.136535|   -3.580176|
|         933|   -5.706115|   -3.136830|   -3.579511|
|         934|   -5.703993|   -3.137118|   -3.578834|
|         935|   -5.701879|   -3.137400|   -3.578146|
|         936|   -5.699773|   -3.137676|   -3.577448|
|         937|   -5.697675|   -3.137946|   -3.576738|
|         938|   -5.695584|   -3.138210|   -3.576018|
|         939|   -5.693501|   -3.138469|   -3.575288|
|         940|   -5.691426|   -3.138724|   -3.574549|
|         941|   -5.689358|   -3.138975|   -3.573798|
|         942|   -5.687298|   -3.139223|   -3.573038|
|         943|   -5.685246|   -3.139468|   -3.572268|
|         944|   -5.683201|   -3.139710|   -3.571491|
|         945|   -5.681165|   -3.139951|   -3.570707|
|         946|   -5.679136|   -3.140190|   -3.569913|
|         947|   -5.677115|   -3.140429|   -3.569110|
|         948|   -5.675103|   -3.140668|   -3.568297|
|         949|   -5.673099|   -3.140906|   -3.567471|
|         950|   -5.671103|   -3.141145|   -3.566629|
|         951|   -5.669116|   -3.141386|   -3.565767|
|         952|   -5.667138|   -3.141628|   -3.564886|
|         953|   -5.665169|   -3.141872|   -3.563986|
|         954|   -5.663209|   -3.142119|   -3.563064|
|         955|   -5.661258|   -3.142369|   -3.562121|
|         956|   -5.659317|   -3.142622|   -3.561160|
|         957|   -5.657385|   -3.142880|   -3.560180|
|         958|   -5.655463|   -3.143143|   -3.559186|
|         959|   -5.653551|   -3.143411|   -3.558178|
|         960|   -5.651649|   -3.143685|   -3.557156|
|         961|   -5.649756|   -3.143965|   -3.556121|
|         962|   -5.647873|   -3.144251|   -3.555073|
|         963|   -5.646001|   -3.144544|   -3.554009|
|         964|   -5.644139|   -3.144844|   -3.552929|
|         965|   -5.642287|   -3.145151|   -3.551835|
|         966|   -5.640446|   -3.145465|   -3.550723|
|         967|   -5.638615|   -3.145785|   -3.549592|
|         968|   -5.636795|   -3.146112|   -3.548443|
|         969|   -5.634985|   -3.146446|   -3.547274|
|         970|   -5.633186|   -3.146786|   -3.546087|
|         971|   -5.631398|   -3.147132|   -3.544880|
|         972|   -5.629621|   -3.147484|   -3.543652|
|         973|   -5.627854|   -3.147840|   -3.542407|
|         974|   -5.626098|   -3.148201|   -3.541143|
|         975|   -5.624352|   -3.148565|   -3.539861|
|         976|   -5.622616|   -3.148932|   -3.538566|
|         977|   -5.620891|   -3.149300|   -3.537260|
|         978|   -5.619176|   -3.149671|   -3.535948|
|         979|   -5.617472|   -3.150044|   -3.534632|
|         980|   -5.615778|   -3.150418|   -3.533316|
|         981|   -5.614094|   -3.150792|   -3.532004|
|         982|   -5.612420|   -3.151168|   -3.530699|
|         983|   -5.610757|   -3.151544|   -3.529403|
|         984|   -5.609104|   -3.151919|   -3.528119|
|         985|   -5.607461|   -3.152296|   -3.526842|
|         986|   -5.605828|   -3.152674|   -3.525570|
|         987|   -5.604205|   -3.153051|   -3.524302|
|         988|   -5.602593|   -3.153427|   -3.523038|
|         989|   -5.600990|   -3.153801|   -3.521784|
|         990|   -5.599396|   -3.154172|   -3.520537|
|         991|   -5.597811|   -3.154540|   -3.519292|
|         992|   -5.596236|   -3.154902|   -3.518052|
|         993|   -5.594669|   -3.155258|   -3.516825|
|         994|   -5.593110|   -3.155606|   -3.515615|
|         995|   -5.591560|   -3.155945|   -3.514422|
|         996|   -5.590018|   -3.156275|   -3.513247|
|         997|   -5.588484|   -3.156596|   -3.512095|
|         998|   -5.586958|   -3.156909|   -3.510969|
|         999|   -5.585439|   -3.157214|   -3.509866|
|        1000|   -5.583929|   -3.157510|   -3.508792|
|        1001|   -5.582426|   -3.157799|   -3.507751|
|        1002|   -5.580930|   -3.158080|   -3.506742|
|        1003|   -5.579442|   -3.158356|   -3.505755|
|        1004|   -5.577960|   -3.158627|   -3.504796|
|        1005|   -5.576484|   -3.158894|   -3.503868|
|        1006|   -5.575015|   -3.159158|   -3.502972|
|        1007|   -5.573551|   -3.159418|   -3.502100|
|        1008|   -5.572092|   -3.159678|   -3.501261|
|        1009|   -5.570637|   -3.159936|   -3.500454|
|        1010|   -5.569187|   -3.160192|   -3.499677|
|        1011|   -5.567740|   -3.160449|   -3.498937|
|        1012|   -5.566298|   -3.160706|   -3.498225|
|        1013|   -5.564858|   -3.160960|   -3.497553|
|        1014|   -5.563422|   -3.161218|   -3.496917|
|        1015|   -5.561988|   -3.161479|   -3.496308|
|        1016|   -5.560557|   -3.161742|   -3.495736|
|        1017|   -5.559129|   -3.162007|   -3.495199|
|        1018|   -5.557704|   -3.162277|   -3.494686|
|        1019|   -5.556280|   -3.162553|   -3.494199|
|        1020|   -5.554859|   -3.162833|   -3.493746|
|        1021|   -5.553441|   -3.163119|   -3.493314|
|        1022|   -5.552025|   -3.163411|   -3.492904|
|        1023|   -5.550612|   -3.163709|   -3.492524|
|        1024|   -5.549201|   -3.164015|   -3.492160|
|        1025|   -5.547794|   -3.164328|   -3.491816|
|        1026|   -5.546389|   -3.164649|   -3.491498|
|        1027|   -5.544989|   -3.164976|   -3.491200|
|        1028|   -5.543592|   -3.165314|   -3.490917|
|        1029|   -5.542199|   -3.165660|   -3.490651|
|        1030|   -5.540811|   -3.166015|   -3.490399|
|        1031|   -5.539428|   -3.166379|   -3.490165|
|        1032|   -5.538050|   -3.166753|   -3.489944|
|        1033|   -5.536678|   -3.167137|   -3.489732|
|        1034|   -5.535312|   -3.167529|   -3.489529|
|        1035|   -5.533953|   -3.167932|   -3.489327|
|        1036|   -5.532601|   -3.168345|   -3.489124|
|        1037|   -5.531257|   -3.168765|   -3.488920|
|        1038|   -5.529920|   -3.169196|   -3.488704|
|        1039|   -5.528592|   -3.169636|   -3.488476|
|        1040|   -5.527273|   -3.170083|   -3.488237|
|        1041|   -5.525963|   -3.170540|   -3.487982|
|        1042|   -5.524663|   -3.171004|   -3.487709|
|        1043|   -5.523373|   -3.171475|   -3.487417|
|        1044|   -5.522094|   -3.171952|   -3.487112|
|        1045|   -5.520826|   -3.172435|   -3.486787|
|        1046|   -5.519569|   -3.172925|   -3.486443|
|        1047|   -5.518325|   -3.173421|   -3.486082|
|        1048|   -5.517092|   -3.173922|   -3.485704|
|        1049|   -5.515872|   -3.174427|   -3.485311|
|        1050|   -5.514666|   -3.174936|   -3.484907|
|        1051|   -5.513472|   -3.175447|   -3.484495|
|        1052|   -5.512292|   -3.175960|   -3.484073|
|        1053|   -5.511126|   -3.176475|   -3.483648|
|        1054|   -5.509974|   -3.176989|   -3.483221|
|        1055|   -5.508837|   -3.177504|   -3.482795|
|        1056|   -5.507714|   -3.178019|   -3.482369|
|        1057|   -5.506606|   -3.178532|   -3.481950|
|        1058|   -5.505513|   -3.179045|   -3.481539|
|        1059|   -5.504434|   -3.179557|   -3.481136|
|        1060|   -5.503370|   -3.180067|   -3.480744|
|        1061|   -5.502321|   -3.180575|   -3.480363|
|        1062|   -5.501286|   -3.181079|   -3.479996|
|        1063|   -5.500266|   -3.181581|   -3.479638|
|        1064|   -5.499260|   -3.182078|   -3.479294|
|        1065|   -5.498267|   -3.182569|   -3.478959|
|        1066|   -5.497289|   -3.183055|   -3.478630|
|        1067|   -5.496324|   -3.183536|   -3.478304|
|        1068|   -5.495372|   -3.184010|   -3.477979|
|        1069|   -5.494434|   -3.184478|   -3.477651|
|        1070|   -5.493508|   -3.184940|   -3.477320|
|        1071|   -5.492595|   -3.185395|   -3.476983|
|        1072|   -5.491695|   -3.185842|   -3.476635|
|        1073|   -5.490807|   -3.186280|   -3.476279|
|        1074|   -5.489931|   -3.186710|   -3.475910|
|        1075|   -5.489067|   -3.187131|   -3.475527|
|        1076|   -5.488214|   -3.187545|   -3.475129|
|        1077|   -5.487373|   -3.187949|   -3.474715|
|        1078|   -5.486544|   -3.188343|   -3.474288|
|        1079|   -5.485725|   -3.188727|   -3.473848|
|        1080|   -5.484917|   -3.189100|   -3.473392|
|        1081|   -5.484120|   -3.189464|   -3.472926|
|        1082|   -5.483334|   -3.189818|   -3.472448|
|        1083|   -5.482559|   -3.190160|   -3.471964|
|        1084|   -5.481794|   -3.190492|   -3.471477|
|        1085|   -5.481039|   -3.190814|   -3.470989|
|        1086|   -5.480295|   -3.191124|   -3.470507|
|        1087|   -5.479561|   -3.191423|   -3.470033|
|        1088|   -5.478838|   -3.191710|   -3.469566|
|        1089|   -5.478125|   -3.191986|   -3.469111|
|        1090|   -5.477422|   -3.192251|   -3.468669|
|        1091|   -5.476730|   -3.192507|   -3.468238|
|        1092|   -5.476048|   -3.192752|   -3.467820|
|        1093|   -5.475376|   -3.192988|   -3.467413|
|        1094|   -5.474714|   -3.193212|   -3.467016|
|        1095|   -5.474063|   -3.193424|   -3.466629|
|        1096|   -5.473422|   -3.193628|   -3.466248|
|        1097|   -5.472791|   -3.193821|   -3.465875|
|        1098|   -5.472170|   -3.194003|   -3.465508|
|        1099|   -5.471561|   -3.194173|   -3.465146|
|        1100|   -5.470962|   -3.194332|   -3.464794|
|        1101|   -5.470375|   -3.194480|   -3.464453|
|        1102|   -5.469799|   -3.194617|   -3.464129|
|        1103|   -5.469235|   -3.194742|   -3.463819|
|        1104|   -5.468684|   -3.194856|   -3.463528|
|        1105|   -5.468144|   -3.194960|   -3.463253|
|        1106|   -5.467616|   -3.195052|   -3.462999|
|        1107|   -5.467099|   -3.195132|   -3.462762|
|        1108|   -5.466594|   -3.195201|   -3.462531|
|        1109|   -5.466100|   -3.195256|   -3.462307|
|        1110|   -5.465617|   -3.195297|   -3.462086|
|        1111|   -5.465144|   -3.195323|   -3.461864|
|        1112|   -5.464682|   -3.195335|   -3.461635|
|        1113|   -5.464230|   -3.195330|   -3.461401|
|        1114|   -5.463789|   -3.195310|   -3.461158|
|        1115|   -5.463357|   -3.195275|   -3.460899|
|        1116|   -5.462935|   -3.195222|   -3.460625|
|        1117|   -5.462521|   -3.195151|   -3.460336|
|        1118|   -5.462116|   -3.195061|   -3.460031|
|        1119|   -5.461719|   -3.194955|   -3.459706|
|        1120|   -5.461328|   -3.194830|   -3.459359|
|        1121|   -5.460945|   -3.194685|   -3.458990|
|        1122|   -5.460568|   -3.194521|   -3.458597|
|        1123|   -5.460196|   -3.194338|   -3.458178|
|        1124|   -5.459830|   -3.194135|   -3.457734|
|        1125|   -5.459469|   -3.193911|   -3.457268|
|        1126|   -5.459112|   -3.193666|   -3.456781|
|        1127|   -5.458759|   -3.193401|   -3.456278|
|        1128|   -5.458411|   -3.193115|   -3.455761|
|        1129|   -5.458066|   -3.192809|   -3.455227|
|        1130|   -5.457724|   -3.192483|   -3.454683|
|        1131|   -5.457384|   -3.192136|   -3.454130|
|        1132|   -5.457046|   -3.191771|   -3.453568|
|        1133|   -5.456711|   -3.191391|   -3.452998|
|        1134|   -5.456377|   -3.190995|   -3.452422|
|        1135|   -5.456046|   -3.190589|   -3.451835|
|        1136|   -5.455716|   -3.190175|   -3.451242|
|        1137|   -5.455389|   -3.189756|   -3.450646|
|        1138|   -5.455065|   -3.189334|   -3.450045|
|        1139|   -5.454743|   -3.188914|   -3.449445|
|        1140|   -5.454425|   -3.188500|   -3.448845|
|        1141|   -5.454110|   -3.188095|   -3.448248|
|        1142|   -5.453799|   -3.187704|   -3.447662|
|        1143|   -5.453493|   -3.187315|   -3.447088|
|        1144|   -5.453192|   -3.186950|   -3.446532|
|        1145|   -5.452896|   -3.186611|   -3.445998|
|        1146|   -5.452607|   -3.186299|   -3.445491|
|        1147|   -5.452324|   -3.186009|   -3.445011|
|        1148|   -5.452048|   -3.185745|   -3.444538|
|        1149|   -5.451778|   -3.185514|   -3.444088|
|        1150|   -5.451519|   -3.185309|   -3.443670|
|        1151|   -5.451268|   -3.185123|   -3.443280|
|        1152|   -5.451027|   -3.184957|   -3.442914|
|        1153|   -5.450795|   -3.184807|   -3.442565|
|        1154|   -5.450572|   -3.184669|   -3.442230|
|        1155|   -5.450359|   -3.184539|   -3.441904|
|        1156|   -5.450156|   -3.184414|   -3.441578|
|        1157|   -5.449963|   -3.184291|   -3.441253|
|        1158|   -5.449781|   -3.184164|   -3.440923|
|        1159|   -5.449609|   -3.184029|   -3.440587|
|        1160|   -5.449448|   -3.183883|   -3.440241|
|        1161|   -5.449300|   -3.183723|   -3.439883|
|        1162|   -5.449165|   -3.183544|   -3.439515|
|        1163|   -5.449043|   -3.183345|   -3.439134|
|        1164|   -5.448935|   -3.183125|   -3.438740|
|        1165|   -5.448841|   -3.182882|   -3.438333|
|        1166|   -5.448763|   -3.182616|   -3.437913|
|        1167|   -5.448701|   -3.182325|   -3.437482|
|        1168|   -5.448654|   -3.182012|   -3.437038|
|        1169|   -5.448623|   -3.181677|   -3.436587|
|        1170|   -5.448608|   -3.181323|   -3.436126|
|        1171|   -5.448608|   -3.180950|   -3.435657|
|        1172|   -5.448624|   -3.180559|   -3.435178|
|        1173|   -5.448654|   -3.180152|   -3.434686|
|        1174|   -5.448699|   -3.179728|   -3.434179|
|        1175|   -5.448758|   -3.179287|   -3.433656|
|        1176|   -5.448831|   -3.178833|   -3.433115|
|        1177|   -5.448916|   -3.178366|   -3.432555|
|        1178|   -5.449015|   -3.177887|   -3.431973|
|        1179|   -5.449126|   -3.177397|   -3.431368|
|        1180|   -5.449249|   -3.176897|   -3.430739|
|        1181|   -5.449383|   -3.176383|   -3.430086|
|        1182|   -5.449529|   -3.175856|   -3.429409|
|        1183|   -5.449687|   -3.175313|   -3.428705|
|        1184|   -5.449855|   -3.174752|   -3.427971|
|        1185|   -5.450034|   -3.174170|   -3.427204|
|        1186|   -5.450224|   -3.173564|   -3.426403|
|        1187|   -5.450425|   -3.172933|   -3.425565|
|        1188|   -5.450637|   -3.172270|   -3.424689|
|        1189|   -5.450859|   -3.171572|   -3.423777|
|        1190|   -5.451092|   -3.170837|   -3.422826|
|        1191|   -5.451336|   -3.170064|   -3.421841|
|        1192|   -5.451590|   -3.169251|   -3.420823|
|        1193|   -5.451854|   -3.168398|   -3.419774|
|        1194|   -5.452128|   -3.167505|   -3.418699|
[...]
|       20188|   -7.061779|   -3.696993|   -4.049600|
|       20189|   -7.060941|   -3.697278|   -4.050104|
|       20190|   -7.060042|   -3.697562|   -4.050612|
|       20191|   -7.059080|   -3.697849|   -4.051117|
|       20192|   -7.058055|   -3.698136|   -4.051625|
|       20193|   -7.056971|   -3.698423|   -4.052134|
|       20194|   -7.055825|   -3.698712|   -4.052641|
|       20195|   -7.054620|   -3.699002|   -4.053152|
|       20196|   -7.053356|   -3.699292|   -4.053661|
|       20197|   -7.052035|   -3.699584|   -4.054171|
|       20198|   -7.050657|   -3.699876|   -4.054683|
|       20199|   -7.049222|   -3.700169|   -4.055194|
|       20200|   -7.047733|   -3.700463|   -4.055707|
|       20201|   -7.046190|   -3.700757|   -4.056220|
|       20202|   -7.044594|   -3.701053|   -4.056733|
|       20203|   -7.042947|   -3.701349|   -4.057249|
|       20204|   -7.041247|   -3.701646|   -4.057764|
|       20205|   -7.039499|   -3.701944|   -4.058279|
|       20206|   -7.037702|   -3.702242|   -4.058796|
|       20207|   -7.035856|   -3.702542|   -4.059313|
|       20208|   -7.033966|   -3.702842|   -4.059830|
|       20209|   -7.032029|   -3.703143|   -4.060349|
|       20210|   -7.030049|   -3.703444|   -4.060868|
|       20211|   -7.028027|   -3.703747|   -4.061388|
|       20212|   -7.025961|   -3.704049|   -4.061909|
|       20213|   -7.023857|   -3.704353|   -4.062429|
|       20214|   -7.021712|   -3.704658|   -4.062951|
|       20215|   -7.019529|   -3.704963|   -4.063474|
|       20216|   -7.017310|   -3.705268|   -4.063996|
|       20217|   -7.015053|   -3.705575|   -4.064521|
|       20218|   -7.012763|   -3.705882|   -4.065045|
|       20219|   -7.010440|   -3.706190|   -4.065570|
|       20220|   -7.008082|   -3.706498|   -4.066096|
|       20221|   -7.005695|   -3.706807|   -4.066621|
|       20222|   -7.003277|   -3.707116|   -4.067150|
|       20223|   -7.000829|   -3.707426|   -4.067677|
|       20224|   -6.998355|   -3.707737|   -4.068205|
|       20225|   -6.995852|   -3.708049|   -4.068734|
|       20226|   -6.993324|   -3.708361|   -4.069263|
|       20227|   -6.990772|   -3.708673|   -4.069794|
|       20228|   -6.988194|   -3.708986|   -4.070325|
|       20229|   -6.985596|   -3.709300|   -4.070856|
|       20230|   -6.982974|   -3.709614|   -4.071388|
|       20231|   -6.980331|   -3.709929|   -4.071920|
|       20232|   -6.977670|   -3.710244|   -4.072454|
|       20233|   -6.974988|   -3.710560|   -4.072987|
|       20234|   -6.972289|   -3.710877|   -4.073521|
|       20235|   -6.969574|   -3.711194|   -4.074057|
|       20236|   -6.966840|   -3.711511|   -4.074591|
|       20237|   -6.964094|   -3.711829|   -4.075128|
|       20238|   -6.961332|   -3.712148|   -4.075665|
|       20239|   -6.958555|   -3.712467|   -4.076200|
|       20240|   -6.955769|   -3.712787|   -4.076740|
|       20241|   -6.952968|   -3.713107|   -4.077277|
|       20242|   -6.950156|   -3.713428|   -4.077815|
|       20243|   -6.947335|   -3.713749|   -4.078356|
|       20244|   -6.944503|   -3.714070|   -4.078893|
|       20245|   -6.941663|   -3.714392|   -4.079436|
|       20246|   -6.938815|   -3.714715|   -4.079977|
|       20247|   -6.935958|   -3.715038|   -4.080515|
|       20248|   -6.933097|   -3.715361|   -4.081060|
|       20249|   -6.930228|   -3.715685|   -4.081601|
|       20250|   -6.927353|   -3.716010|   -4.082144|
|       20251|   -6.924476|   -3.716335|   -4.082689|
|       20252|   -6.921592|   -3.716660|   -4.083230|
|       20253|   -6.918706|   -3.716986|   -4.083777|
|       20254|   -6.915817|   -3.717312|   -4.084323|
|       20255|   -6.912925|   -3.717639|   -4.084865|
|       20256|   -6.910031|   -3.717966|   -4.085414|
|       20257|   -6.907137|   -3.718294|   -4.085960|
|       20258|   -6.904241|   -3.718622|   -4.086507|
|       20259|   -6.901346|   -3.718950|   -4.087056|
|       20260|   -6.898451|   -3.719279|   -4.087602|
|       20261|   -6.895557|   -3.719608|   -4.088153|
|       20262|   -6.892665|   -3.719938|   -4.088702|
|       20263|   -6.889774|   -3.720268|   -4.089251|
|       20264|   -6.886885|   -3.720599|   -4.089803|
|       20265|   -6.883999|   -3.720930|   -4.090354|
|       20266|   -6.881117|   -3.721261|   -4.090906|
|       20267|   -6.878238|   -3.721592|   -4.091459|
|       20268|   -6.875363|   -3.721925|   -4.092011|
|       20269|   -6.872493|   -3.722257|   -4.092565|
|       20270|   -6.869627|   -3.722590|   -4.093119|
|       20271|   -6.866767|   -3.722923|   -4.093673|
|       20272|   -6.863912|   -3.723256|   -4.094229|
|       20273|   -6.861063|   -3.723590|   -4.094785|
|       20274|   -6.858220|   -3.723925|   -4.095341|
|       20275|   -6.855383|   -3.724259|   -4.095899|
|       20276|   -6.852554|   -3.724594|   -4.096456|
|       20277|   -6.849732|   -3.724930|   -4.097015|
|       20278|   -6.846917|   -3.725265|   -4.097574|
|       20279|   -6.844110|   -3.725601|   -4.098133|
|       20280|   -6.841311|   -3.725938|   -4.098693|
|       20281|   -6.838520|   -3.726274|   -4.099254|
|       20282|   -6.835737|   -3.726611|   -4.099815|
|       20283|   -6.832963|   -3.726949|   -4.100377|
|       20284|   -6.830199|   -3.727287|   -4.100939|
|       20285|   -6.827443|   -3.727625|   -4.101501|
|       20286|   -6.824696|   -3.727963|   -4.102066|
|       20287|   -6.821960|   -3.728302|   -4.102629|
|       20288|   -6.819233|   -3.728641|   -4.103194|
|       20289|   -6.816515|   -3.728980|   -4.103759|
|       20290|   -6.813809|   -3.729320|   -4.104324|
|       20291|   -6.811111|   -3.729660|   -4.104891|
|       20292|   -6.808425|   -3.730000|   -4.105457|
|       20293|   -6.805749|   -3.730341|   -4.106024|
|       20294|   -6.803083|   -3.730682|   -4.106592|
|       20295|   -6.800429|   -3.731023|   -4.107159|
|       20296|   -6.797786|   -3.731365|   -4.107728|
|       20297|   -6.795153|   -3.731707|   -4.108297|
|       20298|   -6.792532|   -3.732049|   -4.108866|
|       20299|   -6.789921|   -3.732392|   -4.109437|
|       20300|   -6.787322|   -3.732734|   -4.110006|
|       20301|   -6.784735|   -3.733078|   -4.110578|
|       20302|   -6.782159|   -3.733421|   -4.111149|
|       20303|   -6.779595|   -3.733765|   -4.111721|
|       20304|   -6.777043|   -3.734109|   -4.112294|
|       20305|   -6.774502|   -3.734454|   -4.112865|
|       20306|   -6.771973|   -3.734798|   -4.113440|
|       20307|   -6.769456|   -3.735143|   -4.114013|
|       20308|   -6.766951|   -3.735489|   -4.114586|
|       20309|   -6.764458|   -3.735834|   -4.115163|
|       20310|   -6.761977|   -3.736181|   -4.115736|
|       20311|   -6.759508|   -3.736527|   -4.116312|
|       20312|   -6.757052|   -3.736873|   -4.116890|
|       20313|   -6.754608|   -3.737221|   -4.117463|
|       20314|   -6.752176|   -3.737568|   -4.118043|
|       20315|   -6.749757|   -3.737915|   -4.118620|
|       20316|   -6.747349|   -3.738263|   -4.119196|
|       20317|   -6.744955|   -3.738611|   -4.119777|
|       20318|   -6.742573|   -3.738959|   -4.120354|
|       20319|   -6.740203|   -3.739308|   -4.120934|
|       20320|   -6.737847|   -3.739657|   -4.121515|
|       20321|   -6.735502|   -3.740006|   -4.122093|
|       20322|   -6.733171|   -3.740356|   -4.122676|
|       20323|   -6.730852|   -3.740705|   -4.123258|
|       20324|   -6.728545|   -3.741056|   -4.123838|
|       20325|   -6.726252|   -3.741406|   -4.124423|
|       20326|   -6.723971|   -3.741757|   -4.125005|
|       20327|   -6.721703|   -3.742108|   -4.125589|
|       20328|   -6.719447|   -3.742459|   -4.126174|
|       20329|   -6.717205|   -3.742810|   -4.126757|
|       20330|   -6.714975|   -3.743162|   -4.127343|
|       20331|   -6.712759|   -3.743514|   -4.127930|
|       20332|   -6.710555|   -3.743866|   -4.128515|
|       20333|   -6.708364|   -3.744219|   -4.129103|
|       20334|   -6.706186|   -3.744571|   -4.129690|
|       20335|   -6.704020|   -3.744924|   -4.130278|
|       20336|   -6.701868|   -3.745278|   -4.130868|
|       20337|   -6.699728|   -3.745631|   -4.131456|
|       20338|   -6.697602|   -3.745985|   -4.132047|
|       20339|   -6.695488|   -3.746339|   -4.132638|
|       20340|   -6.693387|   -3.746693|   -4.133228|
|       20341|   -6.691299|   -3.747047|   -4.133820|
|       20342|   -6.689224|   -3.747402|   -4.134412|
|       20343|   -6.687161|   -3.747757|   -4.135005|
|       20344|   -6.685111|   -3.748112|   -4.135598|
|       20345|   -6.683075|   -3.748468|   -4.136192|
|       20346|   -6.681050|   -3.748823|   -4.136787|
|       20347|   -6.679039|   -3.749179|   -4.137381|
|       20348|   -6.677040|   -3.749535|   -4.137977|
|       20349|   -6.675053|   -3.749892|   -4.138573|
|       20350|   -6.673079|   -3.750248|   -4.139170|
|       20351|   -6.671118|   -3.750605|   -4.139767|
|       20352|   -6.669169|   -3.750962|   -4.140364|
|       20353|   -6.667233|   -3.751320|   -4.140962|
|       20354|   -6.665309|   -3.751677|   -4.141561|
|       20355|   -6.663397|   -3.752035|   -4.142160|
|       20356|   -6.661497|   -3.752393|   -4.142760|
|       20357|   -6.659610|   -3.752751|   -4.143360|
|       20358|   -6.657735|   -3.753110|   -4.143961|
|       20359|   -6.655872|   -3.753468|   -4.144561|
|       20360|   -6.654020|   -3.753827|   -4.145164|
|       20361|   -6.652181|   -3.754186|   -4.145765|
|       20362|   -6.650354|   -3.754546|   -4.146368|
|       20363|   -6.648538|   -3.754905|   -4.146971|
|       20364|   -6.646734|   -3.755265|   -4.147574|
|       20365|   -6.644942|   -3.755626|   -4.148179|
|       20366|   -6.643161|   -3.755986|   -4.148783|
|       20367|   -6.641392|   -3.756347|   -4.149387|
|       20368|   -6.639635|   -3.756708|   -4.149993|
|       20369|   -6.637888|   -3.757069|   -4.150598|
|       20370|   -6.636154|   -3.757430|   -4.151205|
|       20371|   -6.634430|   -3.757792|   -4.151812|
|       20372|   -6.632717|   -3.758154|   -4.152418|
|       20373|   -6.631016|   -3.758516|   -4.153027|
|       20374|   -6.629326|   -3.758879|   -4.153633|
|       20375|   -6.627647|   -3.759241|   -4.154243|
|       20376|   -6.625978|   -3.759604|   -4.154853|
|       20377|   -6.624321|   -3.759968|   -4.155460|
|       20378|   -6.622674|   -3.760331|   -4.156072|
|       20379|   -6.621038|   -3.760695|   -4.156682|
|       20380|   -6.619413|   -3.761059|   -4.157293|
|       20381|   -6.617799|   -3.761424|   -4.157906|
|       20382|   -6.616195|   -3.761789|   -4.158515|
|       20383|   -6.614601|   -3.762154|   -4.159130|
|       20384|   -6.613018|   -3.762519|   -4.159743|
|       20385|   -6.611445|   -3.762885|   -4.160354|
|       20386|   -6.609883|   -3.763251|   -4.160971|
|       20387|   -6.608331|   -3.763617|   -4.161585|
|       20388|   -6.606790|   -3.763984|   -4.162200|
|       20389|   -6.605258|   -3.764351|   -4.162817|
|       20390|   -6.603737|   -3.764719|   -4.163431|
|       20391|   -6.602226|   -3.765086|   -4.164050|
|       20392|   -6.600724|   -3.765454|   -4.164668|
|       20393|   -6.599233|   -3.765823|   -4.165283|
|       20394|   -6.597752|   -3.766192|   -4.165904|
|       20395|   -6.596280|   -3.766561|   -4.166522|
|       20396|   -6.594819|   -3.766931|   -4.167141|
|       20397|   -6.593367|   -3.767301|   -4.167763|
|       20398|   -6.591924|   -3.767671|   -4.168382|
|       20399|   -6.590492|   -3.768042|   -4.169004|
|       20400|   -6.589069|   -3.768413|   -4.169626|
|       20401|   -6.587655|   -3.768785|   -4.170248|
|       20402|   -6.586251|   -3.769157|   -4.170872|
|       20403|   -6.584857|   -3.769530|   -4.171495|
|       20404|   -6.583472|   -3.769903|   -4.172118|
|       20405|   -6.582096|   -3.770277|   -4.172743|
|       20406|   -6.580729|   -3.770651|   -4.173368|
|       20407|   -6.579371|   -3.771025|   -4.173994|
|       20408|   -6.578023|   -3.771400|   -4.174620|
|       20409|   -6.576683|   -3.771776|   -4.175246|
|       20410|   -6.575353|   -3.772152|   -4.175873|
|       20411|   -6.574031|   -3.772529|   -4.176501|
|       20412|   -6.572719|   -3.772906|   -4.177128|
|       20413|   -6.571415|   -3.773284|   -4.177757|
|       20414|   -6.570119|   -3.773662|   -4.178385|
|       20415|   -6.568833|   -3.774041|   -4.179015|
|       20416|   -6.567555|   -3.774421|   -4.179645|
|       20417|   -6.566285|   -3.774801|   -4.180275|
|       20418|   -6.565024|   -3.775181|   -4.180905|
|       20419|   -6.563772|   -3.775563|   -4.181536|
|       20420|   -6.562527|   -3.775945|   -4.182168|
|       20421|   -6.561291|   -3.776327|   -4.182799|
|       20422|   -6.560063|   -3.776710|   -4.183431|
|       20423|   -6.558843|   -3.777094|   -4.184064|
|       20424|   -6.557632|   -3.777479|   -4.184697|
|       20425|   -6.556428|   -3.777864|   -4.185331|
|       20426|   -6.555232|   -3.778250|   -4.185965|
|       20427|   -6.554044|   -3.778637|   -4.186598|
|       20428|   -6.552864|   -3.779024|   -4.187233|
|       20429|   -6.551691|   -3.779412|   -4.187868|
|       20430|   -6.550526|   -3.779801|   -4.188503|
|       20431|   -6.549369|   -3.780190|   -4.189139|
|       20432|   -6.548219|   -3.780580|   -4.189775|
|       20433|   -6.547077|   -3.780971|   -4.190411|
|       20434|   -6.545942|   -3.781363|   -4.191049|
|       20435|   -6.544815|   -3.781755|   -4.191685|
|       20436|   -6.543695|   -3.782149|   -4.192323|
|       20437|   -6.542582|   -3.782543|   -4.192962|
|       20438|   -6.541477|   -3.782938|   -4.193599|
|       20439|   -6.540378|   -3.783333|   -4.194239|
|       20440|   -6.539287|   -3.783730|   -4.194878|
|       20441|   -6.538203|   -3.784127|   -4.195517|
|       20442|   -6.537126|   -3.784525|   -4.196158|
|       20443|   -6.536056|   -3.784924|   -4.196797|
|       20444|   -6.534993|   -3.785324|   -4.197439|
|       20445|   -6.533937|   -3.785725|   -4.198080|
|       20446|   -6.532887|   -3.786127|   -4.198720|
|       20447|   -6.531845|   -3.786529|   -4.199364|
|       20448|   -6.530810|   -3.786932|   -4.200005|
|       20449|   -6.529781|   -3.787336|   -4.200649|
|       20450|   -6.528759|   -3.787741|   -4.201293|
|       20451|   -6.527744|   -3.788148|   -4.201934|
|       20452|   -6.526735|   -3.788554|   -4.202580|
|       20453|   -6.525733|   -3.788962|   -4.203225|
|       20454|   -6.524738|   -3.789371|   -4.203868|
|       20455|   -6.523749|   -3.789781|   -4.204516|
|       20456|   -6.522767|   -3.790192|   -4.205161|
|       20457|   -6.521791|   -3.790603|   -4.205807|
|       20458|   -6.520822|   -3.791016|   -4.206456|
|       20459|   -6.519859|   -3.791430|   -4.207100|
|       20460|   -6.518903|   -3.791844|   -4.207750|
|       20461|   -6.517953|   -3.792259|   -4.208399|
|       20462|   -6.517010|   -3.792676|   -4.209045|
|       20463|   -6.516073|   -3.793093|   -4.209697|
|       20464|   -6.515142|   -3.793512|   -4.210346|
|       20465|   -6.514218|   -3.793932|   -4.210996|
|       20466|   -6.513300|   -3.794352|   -4.211648|
|       20467|   -6.512388|   -3.794774|   -4.212298|
|       20468|   -6.511482|   -3.795197|   -4.212951|
|       20469|   -6.510583|   -3.795620|   -4.213604|
|       20470|   -6.509689|   -3.796045|   -4.214256|
|       20471|   -6.508802|   -3.796471|   -4.214911|
|       20472|   -6.507921|   -3.796898|   -4.215565|
|       20473|   -6.507046|   -3.797326|   -4.216220|
|       20474|   -6.506177|   -3.797755|   -4.216876|
|       20475|   -6.505313|   -3.798185|   -4.217532|
|       20476|   -6.504456|   -3.798616|   -4.218189|
|       20477|   -6.503605|   -3.799048|   -4.218847|
|       20478|   -6.502759|   -3.799481|   -4.219506|
|       20479|   -6.501919|   -3.799916|   -4.220165|
|       20480|   -6.501085|   -3.800351|   -4.220825|
|       20481|   -6.500257|   -3.800788|   -4.221486|
|       20482|   -6.499435|   -3.801226|   -4.222148|
|       20483|   -6.498618|   -3.801665|   -4.222811|
|       20484|   -6.497807|   -3.802105|   -4.223475|
|       20485|   -6.497001|   -3.802546|   -4.224140|
|       20486|   -6.496201|   -3.802988|   -4.224806|
|       20487|   -6.495406|   -3.803432|   -4.225473|
|       20488|   -6.494617|   -3.803876|   -4.226142|
|       20489|   -6.493833|   -3.804322|   -4.226812|
|       20490|   -6.493054|   -3.804769|   -4.227483|
|       20491|   -6.492281|   -3.805217|   -4.228156|
|       20492|   -6.491513|   -3.805667|   -4.228830|
|       20493|   -6.490751|   -3.806117|   -4.229506|
|       20494|   -6.489993|   -3.806569|   -4.230184|
|       20495|   -6.489241|   -3.807022|   -4.230863|
|       20496|   -6.488494|   -3.807476|   -4.231544|
|       20497|   -6.487751|   -3.807932|   -4.232228|
|       20498|   -6.487014|   -3.808388|   -4.232914|
|       20499|   -6.486282|   -3.808847|   -4.233601|
|       20500|   -6.485555|   -3.809306|   -4.234292|
|       20501|   -6.484833|   -3.809766|   -4.234985|
|       20502|   -6.484115|   -3.810228|   -4.235681|
|       20503|   -6.483402|   -3.810691|   -4.236380|
|       20504|   -6.482694|   -3.811156|   -4.237081|
|       20505|   -6.481991|   -3.811622|   -4.237787|
|       20506|   -6.481293|   -3.812089|   -4.238495|
|       20507|   -6.480598|   -3.812558|   -4.239207|
|       20508|   -6.479909|   -3.813027|   -4.239923|
|       20509|   -6.479224|   -3.813499|   -4.240642|
|       20510|   -6.478543|   -3.813971|   -4.241367|
|       20511|   -6.477867|   -3.814445|   -4.242096|
|       20512|   -6.477195|   -3.814921|   -4.242828|
|       20513|   -6.476528|   -3.815398|   -4.243568|
|       20514|   -6.475864|   -3.815877|   -4.244311|
|       20515|   -6.475205|   -3.816357|   -4.245059|
|       20516|   -6.474550|   -3.816838|   -4.245816|
|       20517|   -6.473899|   -3.817322|   -4.246574|
|       20518|   -6.473251|   -3.817806|   -4.247343|
|       20519|   -6.472608|   -3.818292|   -4.248117|
|       20520|   -6.471968|   -3.818781|   -4.248896|
|       20521|   -6.471332|   -3.819270|   -4.249686|
|       20522|   -6.470700|   -3.819762|   -4.250482|
|       20523|   -6.470071|   -3.820255|   -4.251286|
|       20524|   -6.469445|   -3.820750|   -4.252100|
|       20525|   -6.468823|   -3.821247|   -4.252919|
|       20526|   -6.468204|   -3.821745|   -4.253751|
|       20527|   -6.467587|   -3.822246|   -4.254592|
|       20528|   -6.466974|   -3.822749|   -4.255440|
|       20529|   -6.466364|   -3.823253|   -4.256304|
|       20530|   -6.465756|   -3.823760|   -4.257175|
|       20531|   -6.465151|   -3.824270|   -4.258059|
|       20532|   -6.464549|   -3.824781|   -4.258957|
|       20533|   -6.463949|   -3.825295|   -4.259863|
|       20534|   -6.463351|   -3.825811|   -4.260787|
|       20535|   -6.462755|   -3.826330|   -4.261723|
|       20536|   -6.462161|   -3.826851|   -4.262672|
|       20537|   -6.461568|   -3.827375|   -4.263639|
|       20538|   -6.460977|   -3.827902|   -4.264619|
|       20539|   -6.460388|   -3.828433|   -4.265616|
|       20540|   -6.459800|   -3.828965|   -4.266632|
|       20541|   -6.459213|   -3.829502|   -4.267663|
|       20542|   -6.458627|   -3.830042|   -4.268715|
|       20543|   -6.458042|   -3.830585|   -4.269785|
|       20544|   -6.457457|   -3.831132|   -4.270875|
|       20545|   -6.456873|   -3.831682|   -4.271987|
|       20546|   -6.456289|   -3.832237|   -4.273119|
|       20547|   -6.455705|   -3.832796|   -4.274276|
|       20548|   -6.455121|   -3.833359|   -4.275455|
|       20549|   -6.454536|   -3.833927|   -4.276659|
|       20550|   -6.453952|   -3.834499|   -4.277888|
|       20551|   -6.453366|   -3.835076|   -4.279142|
|       20552|   -6.452780|   -3.835659|   -4.280425|
|       20553|   -6.452193|   -3.836247|   -4.281736|
|       20554|   -6.451605|   -3.836840|   -4.283074|
|       20555|   -6.451016|   -3.837440|   -4.284445|
|       20556|   -6.450425|   -3.838045|   -4.285844|
|       20557|   -6.449833|   -3.838657|   -4.287277|
