scsub> Executing:  'cd /home/hem1dev/Codes/SU2_Github_Mark_Test/SU2/Venturi'


WARNING: CONV_CRITERIA is deprecated. SU2 will choose the criteria automatically based on the CONV_FIELD.
That is, RESIDUAL for any RMS_* BGS_* value, and CAUCHY for coefficients such as DRAG etc.


-------------------------------------------------------------------------
|    ___ _   _ ___                                                      |
|   / __| | | |_  )   Release 7.1.1 "Blackbird"                         |
|   \__ \ |_| |/ /                                                      |
|   |___/\___//___|   Suite (Computational Fluid Dynamics Code)         |
|                                                                       |
-------------------------------------------------------------------------
| SU2 Project Website: https://su2code.github.io                        |
|                                                                       |
| The SU2 Project is maintained by the SU2 Foundation                   |
| (http://su2foundation.org)                                            |
-------------------------------------------------------------------------
| Copyright 2012-2021, SU2 Contributors                                 |
|                                                                       |
| SU2 is free software; you can redistribute it and/or                  |
| modify it under the terms of the GNU Lesser General Public            |
| License as published by the Free Software Foundation; either          |
| version 2.1 of the License, or (at your option) any later version.    |
|                                                                       |
| SU2 is distributed in the hope that it will be useful,                |
| but WITHOUT ANY WARRANTY; without even the implied warranty of        |
| MERCHANTABILITY or FITNESS FOR A PARTICULAR PURPOSE. See the GNU      |
| Lesser General Public License for more details.                       |
|                                                                       |
| You should have received a copy of the GNU Lesser General Public      |
| License along with SU2. If not, see <http://www.gnu.org/licenses/>.   |
-------------------------------------------------------------------------


WARNING: CONV_CRITERIA is deprecated. SU2 will choose the criteria automatically based on the CONV_FIELD.
That is, RESIDUAL for any RMS_* BGS_* value, and CAUCHY for coefficients such as DRAG etc.


Parsing config file for zone 0


WARNING: CONV_CRITERIA is deprecated. SU2 will choose the criteria automatically based on the CONV_FIELD.
That is, RESIDUAL for any RMS_* BGS_* value, and CAUCHY for coefficients such as DRAG etc.


----------------- Physical Case Definition ( Zone 0 ) -------------------
Incompressible RANS equations.
Turbulence model: Menter's SST
Hybrid RANS/LES: No Hybrid RANS/LES
No restart solution, use the values at infinity (freestream).
Dimensional simulation.
The reference area is 1 m^2.
The semi-span will be computed using the max y(3D) value.
The reference length is 1 m.
Input mesh file name: c6_cms_venturi.cgns

--------------- Space Numerical Integration ( Zone 0 ) ------------------
Flux difference splitting (FDS) upwind scheme for the flow inviscid terms.
Second order integration in space, with slope limiter.
No slope-limiting method. 
Average of gradients with correction (viscous flow terms).
Average of gradients with correction (viscous turbulence terms).
Gradient for upwind reconstruction: Green-Gauss.
Gradient for viscous and source terms: Green-Gauss.

--------------- Time Numerical Integration  ( Zone 0 ) ------------------
Local time stepping (steady state simulation).
Euler implicit method for the flow equations.
FGMRES is used for solving the linear system.
Using a ILU(0) preconditioning.
Convergence criteria of the linear solver: 1e-08.
Max number of linear iterations: 50.
No CFL adaptation.
Courant-Friedrichs-Lewy number:      100
Euler implicit time integration for the turbulence model.

------------------ Convergence Criteria  ( Zone 0 ) ---------------------
Maximum number of solver subiterations: 10000.
Begin convergence monitoring at iteration 10.
Residual minimum value: 1e-10.
Cauchy series min. value: 1e-06.
Number of Cauchy elements: 100.
Begin windowed time average at iteration 0.

-------------------- Output Information ( Zone 0 ) ----------------------
Writing solution files every 1000 iterations.
Writing the convergence history file every 1 inner iterations.
Writing the screen convergence history every 1 inner iterations.
The tabular file format is CSV (.csv).
Convergence history file name: history_test.
Forces breakdown file name: forces_breakdown.dat.
Surface file name: surface_flow_venturi_mixturedensity_30kW_fine_test.
Volume file name: flow_venturi_mixturedensity_30kW_fine_test.
Restart file name: restart_venturi_mixturedensity_30kW_fine_test.dat.

------------- Config File Boundary Information ( Zone 0 ) ---------------
+-----------------------------------------------------------------------+
|                        Marker Type|                        Marker Name|
+-----------------------------------------------------------------------+
|                     Symmetry plane|                               axis|
+-----------------------------------------------------------------------+
|                     Inlet boundary|                          gas_inlet|
|                                   |                          air_inlet|
+-----------------------------------------------------------------------+
|                    Outlet boundary|                             outlet|
+-----------------------------------------------------------------------+
|                     Heat flux wall|            wall-component1-surface|
+-----------------------------------------------------------------------+

-------------------- Output Preprocessing ( Zone 0 ) --------------------
Screen output fields: INNER_ITER, RMS_PRESSURE, RMS_VELOCITY-X, RMS_VELOCITY-Y, RMS_PASSIVE_SCALAR
History output group(s): RMS_RES, AERO_COEFF, FLOW_COEFF
Ignoring Convergence Field(s): RMS_DENSITY 
Convergence field(s): RMS_PRESSURE, RMS_VELOCITY-X, RMS_VELOCITY-Y, RMS_TKE
Warning: No (valid) fields chosen for time convergence monitoring. Time convergence monitoring inactive.
  Info: Ignoring the following volume output fields/groups:
  SOURCE, LOOKUP
Volume output fields: DENSITY, SOLUTION, PRIMITIVE, RESIDUAL, COORDINATES

------------------- Geometry Preprocessing ( Zone 0 ) -------------------
Reading the CGNS file: c6_cms_venturi.cgns.
CGNS file contains 1 database(s).
Database 1, Base:  cell dimension of 2, physical dimension of 2.
1 total zone(s).
Zone 1, Zone: 292948 total vertices, 295883 total elements.
Loading CoordinateX values into linear partitions.
Loading CoordinateY values into linear partitions.
Distributing connectivity across all ranks.
Number of connectivity sections is 6.
Section gas_inlet contains 51 elements of type Mixed.
Section air_inlet contains 150 elements of type Mixed.
Section outlet contains 157 elements of type Mixed.
Section axis contains 1721 elements of type Mixed.
Section component1-surface contains 290183 elements of type Mixed.
Section wall-component1-surface contains 3621 elements of type Mixed.
Loading surface section gas_inlet from file.
Loading surface section air_inlet from file.
Loading surface section outlet from file.
Loading surface section axis from file.
Loading volume section component1-surface from file.
Loading surface section wall-component1-surface from file.
Two dimensional problem.
292948 grid points before partitioning.
290183 volume elements before partitioning.
5 surface markers.
51 boundary elements in index 0 (Marker = gas_inlet).
150 boundary elements in index 1 (Marker = air_inlet).
157 boundary elements in index 2 (Marker = outlet).
1721 boundary elements in index 3 (Marker = axis).
3621 boundary elements in index 4 (Marker = wall-component1-surface).
Executing the partitioning functions.
Building the graph adjacency structure.
Calling ParMETIS... graph partitioning complete (13662 edge cuts).
Distributing ParMETIS coloring.
Rebalancing vertices.
Rebalancing volume element connectivity.
Rebalancing markers and surface elements.
320617 vertices including ghost points. 
303881 interior elements including halo cells. 
174 triangles.
303707 quadrilaterals.
Establishing MPI communication patterns.
Setting point connectivity.
Renumbering points (Reverse Cuthill McKee Ordering).
Recomputing point connectivity.
Setting element connectivity.
Checking the numerical grid orientation.
All volume elements are correctly orientend.
All surface elements are correctly orientend.
Identifying edges and vertices.
Setting the control volume structure.
Area of the computational grid: 0.00286004.
Searching for the closest normal neighbors to the surfaces.
Storing a mapping from global to local point index.
Compute the surface curvature.
Max K: 25766.3. Mean K: 66.0693. Standard deviation K: 1007.76.
Checking for periodicity.
Computing mesh quality statistics for the dual control volumes.
+--------------------------------------------------------------+
|           Mesh Quality Metric|        Minimum|        Maximum|
+--------------------------------------------------------------+
|    Orthogonality Angle (deg.)|        45.2115|             90|
|     CV Face Area Aspect Ratio|              1|        10.3208|
|           CV Sub-Volume Ratio|              1|        9.85984|
+--------------------------------------------------------------+
Finding max control volume width.
Communicating number of neighbors.
Wetted area = 0 m^2.
Area projection in the x-plane = 0 m, y-plane = 0 m.
Max. coordinate in the x-direction = -1e+10 m, y-direction = -1e+10 m.
Min. coordinate in the x-direction = 1e+10 m, y-direction = 1e+10 m.
Checking if Euler & Symmetry markers are straight/plane:
Boundary marker axis is a single straight.
Computing wall distances.

-------------------- Solver Preprocessing ( Zone 0 ) --------------------
Incompressible flow: rho_ref, vel_ref, temp_ref, p_ref
are set to 1.0 in order to perform a dimensional calculation.
Force coefficients computed using initial values.
The reference area for force coeffs. is 1 m^2.
The reference length for force coeffs. is 1 m.
The pressure is decomposed into thermodynamic and dynamic components.
The initial value of the dynamic pressure is 0.
Mach number: 0, computed using fluid speed of sound.
For external flows, the initial state is imposed at the far-field.
Angle of attack (deg): 0, computed using the initial velocity.
Side slip angle (deg): 0, computed using the initial velocity.
Reynolds number per meter: 66852.4, computed using initial values.
Reynolds number is a byproduct of inputs only (not used internally).
SI units only. The grid should be dimensional (meters).
Energy equation is active and coupled for variable density.

-- Models:
+------------------------------------------------------------------------------+
|          Viscosity Model|        Conductivity Model|              Fluid Model|
+------------------------------------------------------------------------------+
|               SUTHERLAND|          CONSTANT_PRANDTL|+------------------------------------------------------------------------------+
-- Fluid properties:
+------------------------------------------------------------------------------+
|                  Name|    Dim. value|    Ref. value|      Unit|Non-dim. value|
+------------------------------------------------------------------------------+
|        Ref. Viscosity|     1.716e-05|             1|   N.s/m^2|     1.716e-05|
|      Sutherland Temp.|        273.15|             1|         K|        273.15|
|     Sutherland Const.|         110.4|             1|         K|         110.4|
+------------------------------------------------------------------------------+
|        Prandtl (Lam.)|             -|             -|         -|          0.72|
|       Prandtl (Turb.)|             -|             -|         -|           0.9|
+------------------------------------------------------------------------------+
-- Initial and free-stream conditions:
+------------------------------------------------------------------------------+
|                  Name|    Dim. value|    Ref. value|      Unit|Non-dim. value|
+------------------------------------------------------------------------------+
|      Dynamic Pressure|             0|             1|        Pa|             0|
|        Total Pressure|           0.6|             1|        Pa|           0.6|
|               Density|           1.2|             1|    kg/m^3|           1.2|
|           Temperature|           300|             1|         K|           300|
|            Velocity-X|             1|             1|       m/s|             1|
|            Velocity-Y|             0|             1|       m/s|             0|
|    Velocity Magnitude|             1|             1|       m/s|             1|
+------------------------------------------------------------------------------+
|             Viscosity|     1.795e-05|             1|   N.s/m^2|     1.795e-05|
|          Conductivity|             -|             1|   W/m^2.K|             -|
|     Turb. Kin. Energy|       0.00375|             1|   m^2/s^2|       0.00375|
|     Spec. Dissipation|       25.0696|             1|       1/s|       25.0696|
+------------------------------------------------------------------------------+
|           Mach Number|             -|             -|         -|             0|
|       Reynolds Number|             -|             -|         -|       66852.4|
+------------------------------------------------------------------------------+
Initialize Jacobian structure (Navier-Stokes). MG level: 0.
Initialize Jacobian structure (passive scalar model).
Initialize Jacobian structure (SST model).

------------------- Numerics Preprocessing ( Zone 0 ) -------------------

----------------- Integration Preprocessing ( Zone 0 ) ------------------

------------------- Iteration Preprocessing ( Zone 0 ) ------------------
Euler/Navier-Stokes/RANS fluid iteration.

------------------------------ Begin Solver -----------------------------

Simulation Run using the Single-zone Driver
Initializing passive scalar (initial condition).
initialization = 1 1
+----------------------------------------------------------------+
|  Inner_Iter|      rms[P]|      rms[U]|      rms[V]|      rms[c]|
+----------------------------------------------------------------+
|           0|    1.007946|    1.276813|    1.758873|    0.420770|
|           1|    0.995251|    1.212642|    1.917551|    0.816665|
|           2|    0.610336|    1.407620|    1.942443|    0.616768|
|           3|    0.472656|    1.265133|    1.856924|    0.253194|
|           4|    0.429410|    1.173683|    1.669494|   -0.060175|
|           5|    0.437858|    1.163022|    1.420580|   -0.260063|
|           6|    0.392726|    1.197805|    1.369735|   -0.285130|
|           7|    0.369005|    1.226592|    1.426415|   -0.292731|
|           8|    0.389902|    1.247800|    1.519710|   -0.274475|
|           9|    0.419300|    1.269682|    1.631673|   -0.223073|
|          10|    0.442373|    1.291741|    1.724955|   -0.233827|
|          11|    0.448003|    1.316078|    1.763733|   -0.253514|
|          12|    0.430474|    1.340352|    1.757839|   -0.276186|
|          13|    0.402622|    1.365106|    1.735901|   -0.305101|
|          14|    0.378094|    1.391325|    1.718843|   -0.316385|
|          15|    0.362289|    1.418944|    1.711838|   -0.313723|
|          16|    0.353867|    1.446854|    1.718737|   -0.306900|
|          17|    0.350049|    1.474350|    1.735885|   -0.291855|
|          18|    0.348756|    1.501444|    1.757191|   -0.284879|
|          19|    0.347101|    1.528285|    1.777637|   -0.285227|
|          20|    0.344005|    1.554744|    1.795877|   -0.282589|
|          21|    0.339491|    1.580637|    1.811787|   -0.289728|
|          22|    0.334433|    1.605804|    1.825963|   -0.297888|
|          23|    0.329382|    1.630311|    1.838953|   -0.308185|
|          24|    0.325004|    1.654226|    1.852232|   -0.318297|
|          25|    0.321201|    1.677463|    1.865698|   -0.327272|
|          26|    0.317616|    1.699922|    1.877784|   -0.332116|
|          27|    0.314564|    1.721493|    1.889231|   -0.332958|
|          28|    0.311633|    1.742081|    1.899239|   -0.332493|
|          29|    0.308589|    1.761832|    1.907869|   -0.329288|
|          30|    0.305394|    1.780871|    1.915353|   -0.330027|
|          31|    0.302324|    1.799263|    1.922760|   -0.333618|
|          32|    0.299144|    1.817082|    1.930738|   -0.340713|
|          33|    0.295931|    1.834316|    1.939653|   -0.351615|
|          34|    0.292364|    1.850955|    1.949168|   -0.365733|
|          35|    0.288578|    1.867115|    1.959178|   -0.376250|
|          36|    0.284745|    1.882819|    1.969094|   -0.380635|
|          37|    0.281295|    1.897988|    1.978718|   -0.384938|
|          38|    0.278031|    1.912584|    1.987991|   -0.384358|
|          39|    0.274746|    1.926632|    1.996655|   -0.383655|
|          40|    0.271518|    1.940171|    2.005407|   -0.381947|
|          41|    0.268186|    1.953244|    2.013372|   -0.379321|
|          42|    0.264882|    1.965871|    2.020903|   -0.378291|
|          43|    0.261483|    1.978047|    2.027785|   -0.383807|
|          44|    0.258092|    1.989776|    2.034192|   -0.384502|
|          45|    0.254656|    2.001059|    2.040047|   -0.389712|
|          46|    0.251173|    2.011890|    2.045327|   -0.387206|
|          47|    0.247620|    2.022322|    2.049962|   -0.385500|
|          48|    0.244224|    2.032366|    2.054306|   -0.382881|
|          49|    0.240785|    2.042038|    2.058276|   -0.380047|
|          50|    0.237360|    2.051375|    2.061712|   -0.377896|
|          51|    0.233950|    2.060346|    2.064781|   -0.375478|
|          52|    0.230482|    2.068992|    2.067424|   -0.374996|
|          53|    0.226965|    2.077348|    2.069581|   -0.375999|
|          54|    0.223382|    2.085427|    2.071323|   -0.378848|
|          55|    0.219736|    2.093221|    2.072682|   -0.378853|
|          56|    0.216077|    2.100719|    2.073745|   -0.377305|
|          57|    0.212464|    2.107918|    2.074589|   -0.378573|
|          58|    0.208821|    2.114831|    2.075127|   -0.374161|
|          59|    0.205300|    2.121496|    2.075634|   -0.368740|
|          60|    0.201863|    2.127965|    2.075935|   -0.363187|
|          61|    0.198596|    2.134361|    2.076055|   -0.356914|
|          62|    0.195476|    2.140912|    2.076040|   -0.350576|
|          63|    0.192271|    2.147993|    2.075422|   -0.341531|
|          64|    0.189040|    2.155959|    2.073992|   -0.364220|
|          65|    0.185092|    2.165602|    2.071377|   -0.372499|
|          66|    0.181090|    2.177403|    2.067724|   -0.364244|
|          67|    0.177191|    2.190203|    2.063482|   -0.296043|
|          68|    0.171137|    2.203278|    2.059220|   -0.214183|
|          69|    0.171550|    2.214077|    2.057211|   -0.207292|
|          70|    0.204764|    2.209539|    2.059790|   -0.244674|
|          71|    0.208568|    2.193895|    2.066197|   -0.288906|
|          72|    0.187577|    2.190758|    2.070313|   -0.386832|
|          73|    0.167964|    2.195836|    2.069762|   -0.440269|
|          74|    0.151863|    2.201329|    2.064091|   -0.505102|
|          75|    0.140012|    2.201683|    2.054564|   -0.533447|
|          76|    0.127742|    2.204993|    2.044715|   -0.543621|
|          77|    0.116877|    2.208681|    2.036471|   -0.547524|
|          78|    0.107083|    2.211665|    2.029391|   -0.550643|
|          79|    0.097903|    2.214182|    2.022995|   -0.544388|
|          80|    0.089429|    2.216396|    2.017465|   -0.548902|
|          81|    0.081908|    2.218382|    2.012264|   -0.563515|
|          82|    0.075550|    2.220248|    2.007697|   -0.578587|
|          83|    0.070159|    2.222106|    2.003647|   -0.590137|
|          84|    0.065554|    2.224070|    1.999975|   -0.597022|
|          85|    0.061418|    2.226211|    1.996265|   -0.609057|
|          86|    0.057466|    2.228546|    1.992173|   -0.613273|
|          87|    0.053349|    2.231051|    1.987378|   -0.612672|
|          88|    0.048925|    2.233703|    1.981783|   -0.613052|
|          89|    0.044192|    2.236453|    1.975346|   -0.603643|
|          90|    0.039025|    2.239260|    1.968113|   -0.603598|
|          91|    0.033633|    2.242079|    1.960195|   -0.606376|
|          92|    0.027896|    2.244861|    1.951633|   -0.601643|
|          93|    0.021698|    2.247634|    1.942510|   -0.604586|
|          94|    0.015190|    2.250392|    1.932780|   -0.606032|
|          95|    0.008385|    2.253069|    1.922387|   -0.609188|
|          96|    0.001018|    2.255666|    1.912829|   -0.610106|
|          97|   -0.006798|    2.258160|    1.902630|   -0.610206|
|          98|   -0.014867|    2.260511|    1.891866|   -0.613498|
|          99|   -0.023305|    2.262700|    1.880491|   -0.616108|
|         100|   -0.032060|    2.264740|    1.868632|   -0.615861|
|         101|   -0.041042|    2.266598|    1.856189|   -0.613006|
|         102|   -0.050340|    2.268272|    1.843345|   -0.618949|
|         103|   -0.060544|    2.269867|    1.832690|   -0.607965|
|         104|   -0.071053|    2.271338|    1.821169|   -0.611400|
|         105|   -0.081712|    2.272653|    1.809596|   -0.613583|
|         106|   -0.092457|    2.273839|    1.797842|   -0.611302|
|         107|   -0.103499|    2.274898|    1.786014|   -0.621824|
|         108|   -0.114778|    2.275824|    1.774237|   -0.628526|
|         109|   -0.126373|    2.276672|    1.762568|   -0.623414|
|         110|   -0.138095|    2.277391|    1.751062|   -0.616903|
|         111|   -0.149950|    2.278009|    1.739996|   -0.602461|
|         112|   -0.162067|    2.278539|    1.729430|   -0.605615|
|         113|   -0.174123|    2.278999|    1.719764|   -0.608299|
|         114|   -0.185941|    2.279375|    1.711109|   -0.606991|
|         115|   -0.197824|    2.279671|    1.703697|   -0.589264|
|         116|   -0.209039|    2.279913|    1.697776|   -0.565698|
|         117|   -0.219940|    2.280068|    1.693500|   -0.562084|
|         118|   -0.229807|    2.280150|    1.691047|   -0.580026|
|         119|   -0.238837|    2.280185|    1.690453|   -0.582897|
|         120|   -0.246764|    2.280149|    1.691478|   -0.585786|
|         121|   -0.252717|    2.280077|    1.694585|   -0.588522|
|         122|   -0.257219|    2.279916|    1.699873|   -0.583357|
|         123|   -0.259111|    2.279714|    1.707181|   -0.569794|
|         124|   -0.258112|    2.279470|    1.716548|   -0.557019|
|         125|   -0.252387|    2.279254|    1.727492|   -0.561328|
|         126|   -0.236447|    2.279299|    1.737920|   -0.546288|
|         127|   -0.190237|    2.280427|    1.748128|   -0.470729|
|         128|   -0.171605|    2.280497|    1.769719|   -0.437054|
|         129|   -0.172551|    2.277993|    1.785716|   -0.444817|
|         130|   -0.176228|    2.274727|    1.792170|   -0.436150|
|         131|   -0.180622|    2.272753|    1.810140|   -0.420613|
|         132|   -0.177478|    2.272645|    1.839827|   -0.420217|
|         133|   -0.165130|    2.272696|    1.872623|   -0.427552|
|         134|   -0.146335|    2.272207|    1.902334|   -0.245722|
|         135|   -0.118108|    2.271656|    1.929689|    0.101608|
|         136|   -0.082460|    2.271818|    1.960103|    0.229512|
|         137|   -0.046631|    2.271814|    1.982611|    0.223019|
|         138|   -0.033116|    2.273669|    1.985018|    0.178895|
|         139|   -0.052229|    2.275121|    1.983896|    0.172793|
|         140|   -0.057043|    2.274028|    1.991861|    0.229926|
|         141|   -0.032510|    2.271314|    2.012059|    0.261386|
|         142|    0.002282|    2.269424|    2.032793|    0.301339|
|         143|    0.020028|    2.268127|    2.048795|    0.323392|
|         144|    0.045802|    2.265676|    2.059275|    0.203131|
|         145|    0.078743|    2.265559|    2.054942|   -0.052210|
|         146|    0.004646|    2.264017|    2.063510|   -0.242423|
|         147|   -0.004729|    2.256609|    2.070334|   -0.380482|
|         148|    0.008838|    2.251941|    2.075462|   -0.529178|
|         149|   -0.029142|    2.250237|    2.070303|   -0.629932|
|         150|   -0.003867|    2.251563|    2.089161|   -0.716894|
|         151|   -0.014394|    2.246610|    2.075755|   -0.742651|
|         152|   -0.012264|    2.244304|    2.081004|   -0.740316|
|         153|   -0.007617|    2.243303|    2.082645|   -0.783102|
|         154|   -0.004020|    2.239344|    2.083648|   -0.815095|
|         155|   -0.001194|    2.235868|    2.086756|   -0.918828|
|         156|    0.010760|    2.231361|    2.088887|   -0.977719|
|         157|    0.016979|    2.226481|    2.091869|   -0.953579|
|         158|    0.017004|    2.222816|    2.094750|   -0.996434|
|         159|    0.021127|    2.219210|    2.099416|   -1.099832|
|         160|    0.029148|    2.215272|    2.107215|   -1.094822|
|         161|    0.039275|    2.209852|    2.115210|   -1.083057|
|         162|    0.046891|    2.202542|    2.119564|   -1.146089|
|         163|    0.049277|    2.196096|    2.123623|   -1.292622|
|         164|    0.053385|    2.191291|    2.128727|   -1.417974|
|         165|    0.059411|    2.186622|    2.134096|   -1.476512|
|         166|    0.065388|    2.181440|    2.139303|   -1.526405|
|         167|    0.070427|    2.176046|    2.143879|   -1.549900|
|         168|    0.074899|    2.170911|    2.148004|   -1.567523|
|         169|    0.079170|    2.165941|    2.151797|   -1.579152|
|         170|    0.083340|    2.161062|    2.155413|   -1.584340|
|         171|    0.087416|    2.156292|    2.158912|   -1.581444|
|         172|    0.091442|    2.151633|    2.162335|   -1.568316|
|         173|    0.095437|    2.147042|    2.165692|   -1.542276|
|         174|    0.099388|    2.142482|    2.168988|   -1.501280|
|         175|    0.103271|    2.137939|    2.172217|   -1.444512|
|         176|    0.107068|    2.133411|    2.175376|   -1.372429|
|         177|    0.110762|    2.128897|    2.178463|   -1.286213|
|         178|    0.114341|    2.124397|    2.181472|   -1.187001|
|         179|    0.117804|    2.119920|    2.184396|   -1.075857|
|         180|    0.121172|    2.115487|    2.187231|   -0.957403|
|         181|    0.124394|    2.111142|    2.190013|   -0.856224|
|         182|    0.126920|    2.107001|    2.192895|   -0.585103|
|         183|    0.129451|    2.102707|    2.194796|   -0.228964|
|         184|    0.132985|    2.098102|    2.197584|   -0.020936|
|         185|    0.138516|    2.095097|    2.199387|    0.188530|
|         186|    0.148753|    2.093152|    2.202650|    0.365840|
|         187|    0.151170|    2.094947|    2.206298|    0.310871|
|         188|    0.143590|    2.091200|    2.199696|    0.378120|
|         189|    0.168637|    2.089740|    2.208460|    0.051523|
|         190|    0.159275|    2.094674|    2.198714|    0.368152|
|         191|    0.175345|    2.094480|    2.223602|   -0.046513|
|         192|    0.144444|    2.086702|    2.199649|    0.138626|
|         193|    0.164444|    2.081080|    2.220894|    0.326154|
|         194|    0.182911|    2.082129|    2.218292|   -0.119127|
|         195|    0.145839|    2.084494|    2.198152|   -0.087978|
|         196|    0.181460|    2.083105|    2.220601|   -0.065401|
|         197|    0.178440|    2.089868|    2.215610|   -0.319965|
|         198|    0.142741|    2.082404|    2.206987|   -0.560285|
|         199|    0.139833|    2.076699|    2.215559|   -0.707563|
|         200|    0.129301|    2.072280|    2.201064|   -0.757845|
|         201|    0.117456|    2.073317|    2.196170|   -0.966381|
|         202|    0.116056|    2.068697|    2.195991|   -0.950858|
|         203|    0.110746|    2.066992|    2.192278|   -1.057078|
|         204|    0.107851|    2.066595|    2.191043|   -1.067816|
|         205|    0.104826|    2.066786|    2.188999|   -1.076529|
|         206|    0.101194|    2.066933|    2.186661|   -1.088075|
|         207|    0.097751|    2.067251|    2.185219|   -1.090783|
|         208|    0.094111|    2.067819|    2.184312|   -1.093450|
|         209|    0.090491|    2.068552|    2.183221|   -1.092500|
|         210|    0.086928|    2.069302|    2.182200|   -1.089295|
|         211|    0.083232|    2.070113|    2.181087|   -1.084709|
|         212|    0.079536|    2.071049|    2.179981|   -1.079615|
|         213|    0.075810|    2.072087|    2.178843|   -1.074726|
|         214|    0.072050|    2.073223|    2.177654|   -1.070426|
|         215|    0.068283|    2.074453|    2.176448|   -1.067182|
|         216|    0.064499|    2.075772|    2.175190|   -1.065628|
|         217|    0.060681|    2.077167|    2.173868|   -1.066158|
|         218|    0.056857|    2.078629|    2.172471|   -1.068818|
|         219|    0.053083|    2.080199|    2.171043|   -1.072925|
|         220|    0.049406|    2.082002|    2.169636|   -1.076500|
|         221|    0.045718|    2.084121|    2.168162|   -1.079433|
|         222|    0.042005|    2.086531|    2.166624|   -1.081007|
|         223|    0.038282|    2.089159|    2.165027|   -1.081097|
|         224|    0.034530|    2.091932|    2.163377|   -1.079827|
|         225|    0.030754|    2.094812|    2.161660|   -1.077654|
|         226|    0.026975|    2.097779|    2.159899|   -1.074905|
|         227|    0.023212|    2.100839|    2.158124|   -1.071823|
|         228|    0.019469|    2.104018|    2.156332|   -1.068641|
|         229|    0.015739|    2.107332|    2.154520|   -1.065527|
|         230|    0.012014|    2.110796|    2.152669|   -1.062674|
|         231|    0.008282|    2.114404|    2.150767|   -1.060202|
|         232|    0.004535|    2.118154|    2.148802|   -1.058260|
|         233|    0.000767|    2.122039|    2.146765|   -1.056912|
|         234|   -0.003028|    2.126052|    2.144649|   -1.056253|
|         235|   -0.006872|    2.130192|    2.142447|   -1.056115|
|         236|   -0.010758|    2.134470|    2.140159|   -1.056658|
|         237|   -0.014695|    2.138874|    2.137743|   -1.057977|
|         238|   -0.018709|    2.143383|    2.135215|   -1.060091|
|         239|   -0.022805|    2.148018|    2.132574|   -1.062880|
|         240|   -0.027000|    2.152779|    2.129787|   -1.066536|
|         241|   -0.031314|    2.157650|    2.126835|   -1.070698|
|         242|   -0.035707|    2.162620|    2.123730|   -1.075277|
|         243|   -0.040183|    2.167666|    2.120456|   -1.080293|
|         244|   -0.044863|    2.172763|    2.116997|   -1.085766|
|         245|   -0.049581|    2.177913|    2.113389|   -1.091221|
|         246|   -0.054565|    2.183052|    2.109570|   -1.097333|
|         247|   -0.059695|    2.188219|    2.105586|   -1.103355|
|         248|   -0.065040|    2.193391|    2.101430|   -1.109364|
|         249|   -0.070503|    2.198562|    2.097110|   -1.114927|
|         250|   -0.076177|    2.203679|    2.092618|   -1.119349|
|         251|   -0.081887|    2.208724|    2.087947|   -1.122822|
|         252|   -0.087835|    2.213627|    2.083086|   -1.125212|
|         253|   -0.094048|    2.218444|    2.078028|   -1.126541|
|         254|   -0.100381|    2.223182|    2.072798|   -1.126975|
|         255|   -0.106992|    2.227817|    2.067368|   -1.126435|
|         256|   -0.113704|    2.232376|    2.061748|   -1.125147|
|         257|   -0.120647|    2.236833|    2.055918|   -1.122646|
|         258|   -0.127711|    2.241200|    2.049870|   -1.120399|
|         259|   -0.134977|    2.245460|    2.043596|   -1.117072|
|         260|   -0.142462|    2.249628|    2.037077|   -1.112895|
|         261|   -0.150162|    2.253708|    2.030313|   -1.108283|
|         262|   -0.158064|    2.257698|    2.023301|   -1.102881|
|         263|   -0.166189|    2.261599|    2.016024|   -1.097129|
|         264|   -0.174501|    2.265407|    2.008487|   -1.091076|
|         265|   -0.183067|    2.269118|    2.000668|   -1.084429|
|         266|   -0.191819|    2.272738|    1.992571|   -1.077840|
|         267|   -0.200817|    2.276252|    1.984184|   -1.070962|
|         268|   -0.210057|    2.279669|    1.975495|   -1.064379|
|         269|   -0.219507|    2.282978|    1.966512|   -1.057742|
|         270|   -0.229251|    2.286178|    1.957212|   -1.051119|
|         271|   -0.239137|    2.289266|    1.947611|   -1.045220|
|         272|   -0.249371|    2.292226|    1.937690|   -1.039292|
|         273|   -0.259713|    2.295073|    1.927456|   -1.033636|
|         274|   -0.270534|    2.297785|    1.916917|   -1.029091|
|         275|   -0.281261|    2.300380|    1.906055|   -1.024249|
|         276|   -0.292352|    2.302810|    1.894892|   -1.019202|
|         277|   -0.303839|    2.305128|    1.883413|   -1.015621|
|         278|   -0.315579|    2.307334|    1.871601|   -1.011064|
|         279|   -0.327231|    2.309409|    1.859510|   -1.008770|
|         280|   -0.339190|    2.311306|    1.847172|   -1.006411|
|         281|   -0.351328|    2.313059|    1.834598|   -1.006840|
|         282|   -0.363851|    2.314652|    1.821845|   -1.009486|
|         283|   -0.375416|    2.316081|    1.808992|   -1.012742|
|         284|   -0.388418|    2.317304|    1.795899|   -1.019580|
|         285|   -0.401427|    2.318436|    1.782772|   -1.029060|
|         286|   -0.412781|    2.319431|    1.769600|   -1.040761|
|         287|   -0.424547|    2.320189|    1.756365|   -1.054270|
|         288|   -0.437767|    2.320872|    1.742761|   -1.065613|
|         289|   -0.449013|    2.321537|    1.729139|   -1.080061|
|         290|   -0.459298|    2.322049|    1.715631|   -1.091944|
|         291|   -0.470499|    2.322417|    1.702300|   -1.104809|
|         292|   -0.479237|    2.322702|    1.689524|   -1.115821|
|         293|   -0.487794|    2.322769|    1.677354|   -1.127188|
|         294|   -0.495215|    2.322710|    1.666069|   -1.136834|
|         295|   -0.501239|    2.322505|    1.655702|   -1.145138|
|         296|   -0.506140|    2.322164|    1.646453|   -1.151495|
|         297|   -0.508772|    2.321688|    1.638347|   -1.155550|
|         298|   -0.510416|    2.321062|    1.631678|   -1.157533|
|         299|   -0.510807|    2.320322|    1.626438|   -1.157175|
|         300|   -0.508734|    2.319454|    1.623027|   -1.154654|
|         301|   -0.505131|    2.318420|    1.621305|   -1.150349|
|         302|   -0.499957|    2.317235|    1.621467|   -1.144034|
|         303|   -0.493199|    2.315907|    1.623387|   -1.136484|
|         304|   -0.484988|    2.314427|    1.626966|   -1.128029|
|         305|   -0.475524|    2.312798|    1.632084|   -1.119039|
|         306|   -0.464983|    2.311030|    1.638570|   -1.109986|
|         307|   -0.453498|    2.309128|    1.646265|   -1.101045|
|         308|   -0.441188|    2.307098|    1.655000|   -1.092192|
|         309|   -0.428192|    2.304943|    1.664617|   -1.083556|
|         310|   -0.414680|    2.302666|    1.674947|   -1.074956|
|         311|   -0.400754|    2.300268|    1.685855|   -1.066608|
|         312|   -0.386565|    2.297749|    1.697158|   -1.058308|
|         313|   -0.372249|    2.295111|    1.708745|   -1.050252|
|         314|   -0.357859|    2.292358|    1.720455|   -1.042252|
|         315|   -0.343502|    2.289493|    1.732204|   -1.034555|
|         316|   -0.329259|    2.286518|    1.743855|   -1.026921|
|         317|   -0.315154|    2.283438|    1.755359|   -1.019674|
|         318|   -0.301310|    2.280255|    1.766600|   -1.012406|
|         319|   -0.287665|    2.276978|    1.777580|   -1.005543|
|         320|   -0.274343|    2.273603|    1.788194|   -0.998914|
|         321|   -0.261340|    2.270138|    1.798455|   -0.992528|
|         322|   -0.248635|    2.266586|    1.808326|   -0.986412|
|         323|   -0.236297|    2.262950|    1.817785|   -0.980601|
|         324|   -0.224274|    2.259239|    1.826829|   -0.975027|
|         325|   -0.212625|    2.255455|    1.835436|   -0.969802|
|         326|   -0.201294|    2.251606|    1.843622|   -0.964954|
|         327|   -0.190324|    2.247692|    1.851375|   -0.960375|
|         328|   -0.179650|    2.243725|    1.858722|   -0.956221|
|         329|   -0.169272|    2.239707|    1.865645|   -0.952519|
|         330|   -0.159215|    2.235637|    1.872155|   -0.949100|
|         331|   -0.149434|    2.231531|    1.878278|   -0.946183|
|         332|   -0.139933|    2.227388|    1.884004|   -0.943565|
|         333|   -0.130677|    2.223210|    1.889373|   -0.941509|
|         334|   -0.121665|    2.218995|    1.894369|   -0.939838|
|         335|   -0.112881|    2.214745|    1.899017|   -0.938747|
|         336|   -0.104311|    2.210457|    1.903310|   -0.938231|
|         337|   -0.095954|    2.206127|    1.907276|   -0.938391|
|         338|   -0.087740|    2.201764|    1.910945|   -0.939266|
|         339|   -0.079725|    2.197358|    1.914314|   -0.941005|
|         340|   -0.071837|    2.192926|    1.917426|   -0.944044|
|         341|   -0.064066|    2.188457|    1.920303|   -0.948336|
|         342|   -0.056528|    2.183946|    1.922952|   -0.954202|
|         343|   -0.049049|    2.179449|    1.925467|   -0.962033|
|         344|   -0.041575|    2.174946|    1.927896|   -0.975646|
|         345|   -0.034241|    2.170563|    1.930250|   -0.989405|
|         346|   -0.026005|    2.166201|    1.932305|   -1.008664|
|         347|   -0.017706|    2.161377|    1.934167|   -1.031148|
|         348|   -0.009619|    2.156487|    1.936035|   -1.049831|
|         349|   -0.002598|    2.151636|    1.937355|   -1.052238|
|         350|    0.002812|    2.147108|    1.938529|   -1.067389|
|         351|    0.010495|    2.143173|    1.939105|   -1.082336|
|         352|    0.018525|    2.138400|    1.939233|   -1.089199|
|         353|    0.025435|    2.133359|    1.939528|   -1.100940|
|         354|    0.032114|    2.128639|    1.940261|   -1.106435|
|         355|    0.038725|    2.124264|    1.940326|   -1.089193|
|         356|    0.045538|    2.119966|    1.939683|   -1.087518|
|         357|    0.052487|    2.115455|    1.939105|   -1.096430|
|         358|    0.059460|    2.110863|    1.938758|   -1.091679|
|         359|    0.066206|    2.106385|    1.937972|   -1.069111|
|         360|    0.072882|    2.101992|    1.936648|   -1.057283|
|         361|    0.079605|    2.097552|    1.935242|   -1.063436|
|         362|    0.086347|    2.093090|    1.933847|   -1.058044|
|         363|    0.092849|    2.088751|    1.932029|   -1.050601|
|         364|    0.099228|    2.084501|    1.929685|   -1.056841|
|         365|    0.105694|    2.080244|    1.927300|   -0.597570|
|         366|    0.112097|    2.076044|    1.924738|   -0.324257|
|         367|    0.118509|    2.072027|    1.921762|   -0.104039|
|         368|    0.124850|    2.068204|    1.918381|   -0.002068|
|         369|    0.131255|    2.064558|    1.915310|    0.015631|
|         370|    0.137737|    2.061038|    1.912343|   -0.014330|
|         371|    0.143364|    2.057774|    1.908247|    0.002872|
|         372|    0.148867|    2.054600|    1.902648|    0.062093|
|         373|    0.155366|    2.051277|    1.898476|   -0.008183|
|         374|    0.161353|    2.048207|    1.902539|    0.037645|
|         375|    0.167230|    2.045561|    1.905139|   -0.016550|
|         376|    0.176228|    2.042873|    1.910479|   -0.582240|
|         377|    0.182229|    2.040499|    1.916401|   -0.628116|
|         378|    0.186078|    2.037698|    1.918588|   -0.807273|
|         379|    0.192508|    2.034676|    1.921253|   -0.938044|
|         380|    0.197819|    2.031794|    1.924711|   -0.982167|
|         381|    0.204751|    2.028994|    1.930780|   -0.959345|
|         382|    0.210792|    2.026440|    1.935578|   -0.981481|
|         383|    0.216354|    2.023955|    1.938565|   -0.953684|
|         384|    0.222045|    2.021369|    1.941867|   -0.956180|
|         385|    0.228261|    2.018623|    1.946274|   -0.868814|
|         386|    0.234592|    2.015944|    1.950922|   -0.645874|
|         387|    0.240648|    2.013147|    1.955081|   -0.401067|
|         388|    0.246580|    2.010139|    1.959060|   -0.209104|
|         389|    0.252485|    2.006807|    1.963242|   -0.093178|
|         390|    0.258278|    2.003217|    1.967863|   -0.071326|
|         391|    0.264129|    1.999594|    1.972782|   -0.137585|
|         392|    0.269709|    1.996201|    1.977358|   -0.258436|
|         393|    0.274759|    1.992610|    1.980930|   -0.217819|
|         394|    0.280102|    1.988519|    1.984957|   -0.086941|
|         395|    0.284954|    1.984045|    1.988927|   -0.109031|
|         396|    0.289769|    1.979470|    1.993267|   -0.219653|
|         397|    0.294469|    1.975102|    1.997594|   -0.353238|
|         398|    0.298548|    1.970972|    2.000526|   -0.423115|
|         399|    0.302819|    1.966795|    2.003434|   -0.422002|
|         400|    0.307284|    1.962230|    2.006905|   -0.428191|
|         401|    0.311629|    1.957173|    2.010688|   -0.403353|
|         402|    0.315790|    1.951720|    2.014722|   -0.337899|
|         403|    0.319701|    1.945957|    2.018615|   -0.291945|
|         404|    0.323341|    1.939984|    2.022223|   -0.216075|
|         405|    0.326791|    1.933909|    2.025840|   -0.236095|
|         406|    0.330276|    1.927782|    2.029665|   -0.120144|
|         407|    0.333244|    1.921653|    2.032606|   -0.131025|
|         408|    0.336383|    1.915510|    2.036063|   -0.299469|
|         409|    0.339299|    1.909542|    2.040036|   -0.287641|
|         410|    0.341487|    1.903402|    2.042311|   -0.276707|
|         411|    0.343847|    1.897326|    2.045386|   -0.394118|
|         412|    0.346135|    1.891314|    2.048859|   -0.531021|
|         413|    0.347949|    1.885337|    2.051968|   -0.592485|
|         414|    0.349311|    1.879529|    2.054345|   -0.603826|
|         415|    0.350424|    1.873878|    2.056045|   -0.609531|
|         416|    0.351637|    1.868548|    2.058105|   -0.612971|
|         417|    0.352882|    1.863595|    2.060488|   -0.611476|
|         418|    0.353874|    1.858952|    2.062466|   -0.606771|
|         419|    0.354681|    1.854733|    2.064243|   -0.600366|
|         420|    0.355396|    1.851109|    2.066041|   -0.591564|
|         421|    0.355898|    1.848139|    2.067650|   -0.581433|
|         422|    0.356147|    1.845872|    2.069060|   -0.572093|
|         423|    0.356163|    1.844356|    2.070352|   -0.535348|
|         424|    0.355939|    1.843602|    2.071431|   -0.400332|
|         425|    0.355474|    1.843522|    2.072140|   -0.226344|
|         426|    0.354940|    1.843995|    2.072424|   -0.044032|
|         427|    0.354669|    1.845395|    2.072035|    0.146094|
|         428|    0.354347|    1.848760|    2.071423|    0.269042|
|         429|    0.352111|    1.853928|    2.072367|    0.306241|
|         430|    0.350946|    1.859533|    2.074829|    0.349879|
|         431|    0.349942|    1.866897|    2.074931|    0.341365|
|         432|    0.347465|    1.873514|    2.074656|    0.321647|
|         433|    0.343889|    1.879894|    2.071621|    0.321090|
|         434|    0.340276|    1.885920|    2.068883|    0.297825|
|         435|    0.337096|    1.891983|    2.066917|    0.283351|
|         436|    0.334396|    1.898362|    2.066008|    0.233905|
|         437|    0.331533|    1.905285|    2.065700|    0.181367|
|         438|    0.328021|    1.912534|    2.063760|    0.124795|
|         439|    0.324371|    1.920159|    2.061223|    0.056527|
|         440|    0.321091|    1.928082|    2.058684|    0.007930|
|         441|    0.317979|    1.936342|    2.056222|   -0.087070|
|         442|    0.314429|    1.944875|    2.053929|   -0.167712|
|         443|    0.310673|    1.953506|    2.051128|   -0.193887|
|         444|    0.306789|    1.962197|    2.048252|   -0.204370|
|         445|    0.303000|    1.970800|    2.045347|   -0.216659|
|         446|    0.298982|    1.979414|    2.042276|   -0.204364|
|         447|    0.294659|    1.987954|    2.038964|   -0.155884|
|         448|    0.290015|    1.996365|    2.035458|   -0.203236|
|         449|    0.285256|    2.004665|    2.031828|   -0.275769|
|         450|    0.280323|    2.012897|    2.028079|   -0.399457|
|         451|    0.275166|    2.020990|    2.024165|   -0.460983|
|         452|    0.269856|    2.028866|    2.020080|   -0.456048|
|         453|    0.264457|    2.036463|    2.015858|   -0.452296|
|         454|    0.258979|    2.043740|    2.011613|   -0.454680|
|         455|    0.253320|    2.050671|    2.007119|   -0.457463|
|         456|    0.247535|    2.057305|    2.002401|   -0.459129|
|         457|    0.241683|    2.063680|    1.997586|   -0.461694|
|         458|    0.235766|    2.069789|    1.992724|   -0.461478|
|         459|    0.229775|    2.075625|    1.987794|   -0.461084|
|         460|    0.223721|    2.081261|    1.982774|   -0.459222|
|         461|    0.217617|    2.086714|    1.977584|   -0.453232|
|         462|    0.213308|    2.091983|    1.972187|   -0.354966|
|         463|    0.206323|    2.097319|    1.967880|   -0.242924|
|         464|    0.201989|    2.101806|    1.964743|   -0.281227|
|         465|    0.195342|    2.106477|    1.961833|   -0.249811|
|         466|    0.187280|    2.110877|    1.958465|   -0.272480|
|         467|    0.181918|    2.115307|    1.958028|   -0.319006|
|         468|    0.175889|    2.120241|    1.957922|   -0.313216|
|         469|    0.171057|    2.125441|    1.957287|   -0.323515|
|         470|    0.164718|    2.130445|    1.956156|   -0.320953|
|         471|    0.158551|    2.134596|    1.954119|   -0.323309|
|         472|    0.151855|    2.138164|    1.951469|   -0.330376|
|         473|    0.144606|    2.141413|    1.948225|   -0.337501|
|         474|    0.137089|    2.144530|    1.944373|   -0.347862|
|         475|    0.129176|    2.147588|    1.939912|   -0.348148|
|         476|    0.121321|    2.150704|    1.934935|   -0.348192|
|         477|    0.113269|    2.153696|    1.930428|   -0.363524|
|         478|    0.105346|    2.156548|    1.925666|   -0.384365|
|         479|    0.097182|    2.159127|    1.920611|   -0.396255|
|         480|    0.088656|    2.161585|    1.915260|   -0.387531|
|         481|    0.080221|    2.163982|    1.909623|   -0.379303|
|         482|    0.071628|    2.166256|    1.903725|   -0.371789|
|         483|    0.062970|    2.168513|    1.897582|   -0.365151|
|         484|    0.054311|    2.170782|    1.891216|   -0.359071|
|         485|    0.045698|    2.173082|    1.884838|   -0.353177|
|         486|    0.037149|    2.175427|    1.878710|   -0.347481|
|         487|    0.028706|    2.177808|    1.872475|   -0.341936|
|         488|    0.020296|    2.180219|    1.866160|   -0.336449|
|         489|    0.011897|    2.182649|    1.859755|   -0.330993|
|         490|    0.003525|    2.185076|    1.853265|   -0.325676|
|         491|   -0.004889|    2.187473|    1.846700|   -0.320514|
|         492|   -0.013345|    2.189843|    1.840119|   -0.315441|
|         493|   -0.021626|    2.192176|    1.833534|   -0.310637|
|         494|   -0.029855|    2.194425|    1.827008|   -0.306405|
|         495|   -0.038633|    2.196649|    1.820599|   -0.302600|
|         496|   -0.046638|    2.198909|    1.814291|   -0.298796|
|         497|   -0.054704|    2.200956|    1.808148|   -0.295405|
|         498|   -0.062726|    2.202939|    1.802191|   -0.292612|
|         499|   -0.071418|    2.204956|    1.796422|   -0.289650|
|         500|   -0.078625|    2.207062|    1.790845|   -0.287457|
|         501|   -0.086077|    2.208872|    1.785442|   -0.284508|
|         502|   -0.093400|    2.210664|    1.780229|   -0.281993|
|         503|   -0.101289|    2.212528|    1.775166|   -0.278164|
|         504|   -0.108042|    2.214492|    1.770701|   -0.275377|
|         505|   -0.114367|    2.216278|    1.766485|   -0.272214|
|         506|   -0.120818|    2.217878|    1.762217|   -0.269453|
|         507|   -0.127058|    2.219423|    1.758021|   -0.265863|
|         508|   -0.133191|    2.220931|    1.754014|   -0.263177|
|         509|   -0.138859|    2.222398|    1.750139|   -0.260442|
|         510|   -0.144397|    2.223785|    1.746353|   -0.259466|
|         511|   -0.149829|    2.225109|    1.742651|   -0.257691|
|         512|   -0.154764|    2.226376|    1.739029|   -0.257663|
|         513|   -0.159515|    2.227549|    1.735355|   -0.258519|
|         514|   -0.164413|    2.228658|    1.731883|   -0.259866|
|         515|   -0.169018|    2.229744|    1.728929|   -0.261403|
|         516|   -0.173030|    2.230754|    1.726038|   -0.263826|
|         517|   -0.175712|    2.231642|    1.723390|   -0.267932|
|         518|   -0.179017|    2.232393|    1.721319|   -0.274832|
|         519|   -0.184505|    2.233169|    1.719841|   -0.278203|
|         520|   -0.187787|    2.234105|    1.718458|   -0.280395|
|         521|   -0.189295|    2.235023|    1.716925|   -0.283227|
|         522|   -0.189879|    2.235855|    1.715643|   -0.287404|
|         523|   -0.192226|    2.236629|    1.715320|   -0.299430|
|         524|   -0.196248|    2.237443|    1.716161|   -0.315481|
|         525|   -0.196084|    2.238229|    1.717188|   -0.330640|
|         526|   -0.194815|    2.238730|    1.717344|   -0.343811|
|         527|   -0.194624|    2.239170|    1.716710|   -0.352248|
|         528|   -0.194271|    2.239804|    1.716092|   -0.361326|
|         529|   -0.193078|    2.240718|    1.716686|   -0.370750|
|         530|   -0.190692|    2.241789|    1.718298|   -0.376370|
|         531|   -0.187035|    2.242886|    1.720858|   -0.384079|
|         532|   -0.183503|    2.243991|    1.724715|   -0.392207|
|         533|   -0.179991|    2.245107|    1.729115|   -0.400524|
|         534|   -0.175562|    2.246147|    1.733947|   -0.405196|
|         535|   -0.171803|    2.247025|    1.739239|   -0.416347|
|         536|   -0.168866|    2.247775|    1.745065|   -0.418695|
|         537|   -0.167417|    2.248460|    1.751698|   -0.427452|
|         538|   -0.165588|    2.249057|    1.758490|   -0.434099|
|         539|   -0.165173|    2.249550|    1.764707|   -0.451898|
|         540|   -0.168694|    2.250097|    1.770539|   -0.455358|
|         541|   -0.172094|    2.250872|    1.776219|   -0.456763|
|         542|   -0.174073|    2.251708|    1.781912|   -0.448350|
|         543|   -0.173819|    2.252540|    1.788250|   -0.433728|
|         544|   -0.170591|    2.253205|    1.795158|   -0.415843|
|         545|   -0.166501|    2.253579|    1.802697|   -0.406381|
|         546|   -0.162702|    2.253873|    1.810591|   -0.412558|
|         547|   -0.159518|    2.254310|    1.818864|   -0.408370|
|         548|   -0.155552|    2.254915|    1.827302|   -0.407073|
|         549|   -0.150128|    2.255579|    1.835870|   -0.415933|
|         550|   -0.144250|    2.256273|    1.844437|   -0.428787|
|         551|   -0.138366|    2.257076|    1.852811|   -0.443262|
|         552|   -0.132114|    2.258002|    1.861091|   -0.455613|
|         553|   -0.125415|    2.259059|    1.869430|   -0.464193|
|         554|   -0.118382|    2.260208|    1.877630|   -0.462676|
|         555|   -0.110875|    2.261415|    1.885927|   -0.458953|
|         556|   -0.102093|    2.262692|    1.894429|   -0.459322|
|         557|   -0.086337|    2.264398|    1.901978|   -0.460498|
|         558|   -0.055865|    2.267009|    1.909201|   -0.411817|
|         559|   -0.043579|    2.268212|    1.922547|   -0.398597|
|         560|   -0.043574|    2.267700|    1.929129|   -0.398862|
|         561|   -0.041902|    2.267144|    1.932382|   -0.390300|
|         562|   -0.038354|    2.267026|    1.942759|   -0.394382|
|         563|   -0.033542|    2.267506|    1.958063|   -0.415238|
|         564|   -0.028008|    2.267869|    1.973954|   -0.453281|
|         565|   -0.021815|    2.268480|    1.988340|   -0.486994|
|         566|   -0.014060|    2.269650|    2.000884|   -0.479653|
|         567|   -0.001605|    2.270874|    2.013354|   -0.163287|
|         568|    0.018651|    2.271821|    2.028982|    0.134161|
|         569|    0.037034|    2.272941|    2.046632|    0.241115|
|         570|    0.052729|    2.273647|    2.056597|    0.222363|
|         571|    0.051323|    2.275759|    2.051004|    0.178883|
|         572|    0.037791|    2.276876|    2.049724|    0.233053|
|         573|    0.053488|    2.275068|    2.062177|    0.271621|
|         574|    0.067311|    2.273104|    2.078206|    0.166121|
|         575|    0.135170|    2.273467|    2.078012|   -0.095128|
|         576|    0.042923|    2.277660|    2.072308|   -0.238114|
|         577|    0.061656|    2.271427|    2.101848|   -0.360987|
|         578|    0.071569|    2.268399|    2.091362|   -0.488686|
|         579|    0.034245|    2.267476|    2.089681|   -0.609083|
|         580|    0.045939|    2.268706|    2.101260|   -0.711909|
|         581|    0.040978|    2.267554|    2.093741|   -0.753402|
|         582|    0.039862|    2.266874|    2.095829|   -0.792788|
|         583|    0.042724|    2.267127|    2.097624|   -0.821070|
|         584|    0.043408|    2.266121|    2.097285|   -0.825284|
|         585|    0.045458|    2.265226|    2.098753|   -0.795584|
|         586|    0.046518|    2.264549|    2.099439|   -0.750477|
|         587|    0.046590|    2.263676|    2.099855|   -0.733955|
|         588|    0.046606|    2.262294|    2.100043|   -0.839953|
|         589|    0.046648|    2.259774|    2.101094|   -0.820632|
|         590|    0.044872|    2.256719|    2.101590|   -0.831700|
|         591|    0.043664|    2.253659|    2.102585|   -0.960051|
|         592|    0.043333|    2.250912|    2.104152|   -1.037367|
|         593|    0.042987|    2.248594|    2.105307|   -1.098873|
|         594|    0.042226|    2.246675|    2.105955|   -1.158086|
|         595|    0.040653|    2.244453|    2.105546|   -1.221503|
|         596|    0.038921|    2.241297|    2.104710|   -1.298032|
|         597|    0.038100|    2.237553|    2.104192|   -1.314948|
|         598|    0.038686|    2.233463|    2.104896|   -1.365195|
|         599|    0.039656|    2.229187|    2.106410|   -1.368156|
|         600|    0.040451|    2.224892|    2.108289|   -1.401903|
|         601|    0.041037|    2.220677|    2.110378|   -1.381541|
|         602|    0.041089|    2.216537|    2.112139|   -1.385448|
|         603|    0.040752|    2.212469|    2.113562|   -1.346823|
|         604|    0.040190|    2.208469|    2.114649|   -1.310085|
|         605|    0.039613|    2.204507|    2.115518|   -1.261132|
|         606|    0.039073|    2.200533|    2.116206|   -1.193524|
|         607|    0.038570|    2.196507|    2.116726|   -1.111051|
|         608|    0.038115|    2.192398|    2.117090|   -1.007870|
|         609|    0.037817|    2.188184|    2.117344|   -0.895090|
|         610|    0.037919|    2.183848|    2.117596|   -0.771805|
|         611|    0.038033|    2.179369|    2.118123|   -0.461291|
|         612|    0.036295|    2.174744|    2.118962|   -0.324978|
|         613|    0.036564|    2.170025|    2.118222|   -0.536552|
|         614|    0.034438|    2.166402|    2.114437|   -0.890462|
|         615|    0.028951|    2.163503|    2.111663|   -0.988373|
|         616|    0.032604|    2.158769|    2.117017|   -1.021711|
|         617|    0.028229|    2.154103|    2.113079|   -1.028207|
|         618|    0.027252|    2.149014|    2.113714|   -1.051352|
|         619|    0.026697|    2.143189|    2.113858|   -1.019541|
|         620|    0.024739|    2.137541|    2.112930|   -1.014980|
|         621|    0.023193|    2.131964|    2.112238|   -1.012060|
|         622|    0.022437|    2.126562|    2.111925|   -0.989296|
|         623|    0.020517|    2.121556|    2.110628|   -0.991057|
|         624|    0.019402|    2.116884|    2.109866|   -0.980642|
|         625|    0.018035|    2.112448|    2.108796|   -0.972570|
|         626|    0.016192|    2.108194|    2.107437|   -0.975524|
|         627|    0.014621|    2.104062|    2.106222|   -0.970691|
|         628|    0.012489|    2.100051|    2.104584|   -0.975606|
|         629|    0.010394|    2.096209|    2.102914|   -0.975679|
|         630|    0.008100|    2.092457|    2.101931|   -0.977991|
|         631|    0.005752|    2.088859|    2.101735|   -0.980807|
|         632|    0.003391|    2.085451|    2.101535|   -0.984057|
|         633|    0.000954|    2.082206|    2.101294|   -0.987109|
|         634|   -0.001519|    2.079152|    2.100975|   -0.989173|
|         635|   -0.004006|    2.076305|    2.100580|   -0.991689|
|         636|   -0.006490|    2.073688|    2.100134|   -0.995631|
|         637|   -0.008863|    2.071325|    2.099745|   -0.999992|
|         638|   -0.011135|    2.069196|    2.099393|   -1.005778|
|         639|   -0.013385|    2.067321|    2.098977|   -1.014626|
|         640|   -0.015498|    2.065793|    2.098599|   -1.025630|
|         641|   -0.017549|    2.064764|    2.098241|   -1.038849|
|         642|   -0.019395|    2.064294|    2.098000|   -1.049387|
|         643|   -0.021340|    2.064310|    2.097749|   -1.060736|
|         644|   -0.023205|    2.064640|    2.097509|   -1.066039|
|         645|   -0.025373|    2.065176|    2.096978|   -1.071120|
|         646|   -0.027527|    2.065917|    2.096404|   -1.072302|
|         647|   -0.029697|    2.066864|    2.095814|   -1.072434|
|         648|   -0.031874|    2.068068|    2.095212|   -1.072067|
|         649|   -0.034023|    2.069555|    2.094629|   -1.072576|
|         650|   -0.036163|    2.071344|    2.094032|   -1.074659|
|         651|   -0.038229|    2.073424|    2.093454|   -1.079164|
|         652|   -0.040270|    2.075788|    2.092830|   -1.086357|
|         653|   -0.042263|    2.078442|    2.092167|   -1.095249|
|         654|   -0.044205|    2.081416|    2.091452|   -1.104281|
|         655|   -0.046041|    2.084716|    2.090717|   -1.111293|
|         656|   -0.047766|    2.088303|    2.089974|   -1.116115|
|         657|   -0.049435|    2.092125|    2.089197|   -1.119104|
|         658|   -0.051058|    2.096123|    2.088384|   -1.120671|
|         659|   -0.052684|    2.100264|    2.087491|   -1.121446|
|         660|   -0.054307|    2.104534|    2.086511|   -1.121948|
|         661|   -0.055971|    2.108925|    2.085410|   -1.122364|
|         662|   -0.057664|    2.113418|    2.084200|   -1.122919|
|         663|   -0.059417|    2.118002|    2.082859|   -1.123542|
|         664|   -0.061213|    2.122656|    2.081400|   -1.124704|
|         665|   -0.063079|    2.127359|    2.079798|   -1.126689|
|         666|   -0.065020|    2.132086|    2.078058|   -1.129659|
|         667|   -0.067031|    2.136819|    2.076184|   -1.133562|
|         668|   -0.069122|    2.141542|    2.074168|   -1.137939|
|         669|   -0.071293|    2.146254|    2.072013|   -1.142104|
|         670|   -0.073549|    2.150947|    2.069713|   -1.143320|
|         671|   -0.075911|    2.155598|    2.067263|   -1.146593|
|         672|   -0.078354|    2.160198|    2.064649|   -1.150011|
|         673|   -0.080841|    2.164725|    2.061894|   -1.140200|
|         674|   -0.083565|    2.169151|    2.058853|   -1.149522|
|         675|   -0.086394|    2.173443|    2.055667|   -1.145259|
|         676|   -0.089300|    2.177625|    2.052328|   -1.146124|
|         677|   -0.092386|    2.181664|    2.048766|   -1.143572|
|         678|   -0.095670|    2.185560|    2.044954|   -1.141223|
|         679|   -0.099115|    2.189368|    2.040898|   -1.139107|
|         680|   -0.102774|    2.193024|    2.036578|   -1.135405|
|         681|   -0.106613|    2.196565|    2.032002|   -1.132997|
|         682|   -0.110650|    2.199950|    2.027167|   -1.130378|
|         683|   -0.114880|    2.203200|    2.022065|   -1.128737|
|         684|   -0.119320|    2.206304|    2.016676|   -1.127589|
|         685|   -0.123963|    2.209279|    2.010997|   -1.126775|
|         686|   -0.128806|    2.212134|    2.005008|   -1.126748|
|         687|   -0.133849|    2.214864|    1.998695|   -1.127827|
|         688|   -0.139056|    2.217474|    1.992110|   -1.129801|
|         689|   -0.144439|    2.219972|    1.985228|   -1.132789|
|         690|   -0.150003|    2.222370|    1.978032|   -1.136144|
|         691|   -0.155731|    2.224684|    1.970490|   -1.139845|
|         692|   -0.161604|    2.226919|    1.962640|   -1.143150|
|         693|   -0.167612|    2.229066|    1.954484|   -1.146290|
|         694|   -0.173757|    2.231119|    1.946049|   -1.149013|
|         695|   -0.180047|    2.233070|    1.937326|   -1.151495|
|         696|   -0.186470|    2.234918|    1.928317|   -1.153541|
|         697|   -0.193005|    2.236672|    1.919027|   -1.154982|
|         698|   -0.199644|    2.238337|    1.909432|   -1.155694|
|         699|   -0.206336|    2.239921|    1.899578|   -1.155650|
|         700|   -0.213070|    2.241427|    1.889476|   -1.154837|
|         701|   -0.219834|    2.242855|    1.879144|   -1.153494|
|         702|   -0.226637|    2.244200|    1.868581|   -1.151587|
|         703|   -0.233478|    2.245457|    1.857806|   -1.149393|
|         704|   -0.240364|    2.246619|    1.846820|   -1.146877|
|         705|   -0.247294|    2.247685|    1.835642|   -1.144184|
|         706|   -0.254266|    2.248652|    1.824284|   -1.141520|
|         707|   -0.261261|    2.249521|    1.812778|   -1.138876|
|         708|   -0.268262|    2.250297|    1.801165|   -1.136631|
|         709|   -0.275240|    2.250977|    1.789510|   -1.134404|
|         710|   -0.282168|    2.251573|    1.777857|   -1.132811|
|         711|   -0.289027|    2.252086|    1.766261|   -1.131245|
|         712|   -0.295784|    2.252527|    1.754767|   -1.130106|
|         713|   -0.302437|    2.252899|    1.743401|   -1.129236|
|         714|   -0.308959|    2.253207|    1.732227|   -1.128467|
|         715|   -0.315349|    2.253454|    1.721277|   -1.127768|
|         716|   -0.321593|    2.253642|    1.710588|   -1.127006|
|         717|   -0.327677|    2.253773|    1.700203|   -1.126078|
|         718|   -0.333606|    2.253846|    1.690171|   -1.124901|
|         719|   -0.339352|    2.253859|    1.680547|   -1.123434|
|         720|   -0.344918|    2.253806|    1.671395|   -1.121565|
|         721|   -0.350278|    2.253689|    1.662773|   -1.119404|
|         722|   -0.355421|    2.253505|    1.654751|   -1.116825|
|         723|   -0.360305|    2.253253|    1.647386|   -1.113875|
|         724|   -0.364908|    2.252935|    1.640730|   -1.110617|
|         725|   -0.369196|    2.252550|    1.634828|   -1.106960|
|         726|   -0.373125|    2.252102|    1.629713|   -1.103064|
|         727|   -0.376678|    2.251591|    1.625394|   -1.098912|
|         728|   -0.379812|    2.251019|    1.621883|   -1.094535|
|         729|   -0.382503|    2.250386|    1.619173|   -1.089986|
|         730|   -0.384725|    2.249695|    1.617247|   -1.085289|
|         731|   -0.386451|    2.248945|    1.616088|   -1.080483|
|         732|   -0.387668|    2.248139|    1.615658|   -1.075478|
|         733|   -0.388357|    2.247277|    1.615919|   -1.070336|
|         734|   -0.388524|    2.246359|    1.616815|   -1.065069|
|         735|   -0.388158|    2.245384|    1.618299|   -1.059646|
|         736|   -0.387256|    2.244350|    1.620331|   -1.054146|
|         737|   -0.385829|    2.243252|    1.622855|   -1.048612|
|         738|   -0.383873|    2.242089|    1.625838|   -1.043012|
|         739|   -0.381390|    2.240855|    1.629247|   -1.037410|
|         740|   -0.378387|    2.239546|    1.633040|   -1.031794|
|         741|   -0.374853|    2.238161|    1.637199|   -1.026182|
|         742|   -0.370799|    2.236696|    1.641694|   -1.020633|
|         743|   -0.366229|    2.235149|    1.646500|   -1.015096|
|         744|   -0.361154|    2.233515|    1.651598|   -1.009584|
|         745|   -0.355590|    2.231790|    1.656966|   -1.004134|
|         746|   -0.349562|    2.229970|    1.662579|   -0.998810|
|         747|   -0.343086|    2.228053|    1.668408|   -0.993492|
|         748|   -0.336183|    2.226036|    1.674436|   -0.988231|
|         749|   -0.328885|    2.223923|    1.680634|   -0.983168|
|         750|   -0.321232|    2.221709|    1.686942|   -0.978211|
|         751|   -0.313212|    2.219394|    1.693378|   -0.973065|
|         752|   -0.304895|    2.216981|    1.699916|   -0.968475|
|         753|   -0.296296|    2.214464|    1.706485|   -0.963743|
|         754|   -0.287432|    2.211849|    1.713124|   -0.959214|
|         755|   -0.278382|    2.209132|    1.719728|   -0.954781|
|         756|   -0.269103|    2.206316|    1.726357|   -0.950310|
|         757|   -0.259683|    2.203409|    1.732949|   -0.946327|
|         758|   -0.250171|    2.200405|    1.739407|   -0.942294|
|         759|   -0.240523|    2.197315|    1.745829|   -0.938363|
|         760|   -0.230855|    2.194135|    1.752062|   -0.934469|
|         761|   -0.221091|    2.190871|    1.758225|   -0.930506|
|         762|   -0.211321|    2.187528|    1.764236|   -0.926680|
|         763|   -0.201596|    2.184104|    1.770053|   -0.923174|
|         764|   -0.191903|    2.180606|    1.775686|   -0.919773|
|         765|   -0.182217|    2.177028|    1.781140|   -0.915740|
|         766|   -0.172563|    2.173385|    1.786479|   -0.912051|
|         767|   -0.163047|    2.169676|    1.791558|   -0.908784|
|         768|   -0.153607|    2.165897|    1.796443|   -0.905260|
|         769|   -0.144237|    2.162056|    1.801152|   -0.901316|
|         770|   -0.135030|    2.158159|    1.805621|   -0.897880|
|         771|   -0.125968|    2.154202|    1.809862|   -0.894645|
|         772|   -0.117018|    2.150190|    1.813913|   -0.891058|
|         773|   -0.108210|    2.146131|    1.817753|   -0.887245|
|         774|   -0.099605|    2.142031|    1.821331|   -0.883873|
|         775|   -0.091165|    2.137893|    1.824681|   -0.880570|
|         776|   -0.082857|    2.133723|    1.827831|   -0.876894|
|         777|   -0.074721|    2.129534|    1.830747|   -0.873003|
|         778|   -0.066784|    2.125331|    1.833409|   -0.869350|
|         779|   -0.059012|    2.121114|    1.835850|   -0.865552|
|         780|   -0.051397|    2.116893|    1.838086|   -0.861567|
|         781|   -0.043972|    2.112671|    1.840073|   -0.857449|
|         782|   -0.036709|    2.108449|    1.841857|   -0.853206|
|         783|   -0.029609|    2.104229|    1.843445|   -0.848791|
|         784|   -0.022683|    2.100015|    1.844835|   -0.844362|
|         785|   -0.015932|    2.095811|    1.846005|   -0.839924|
|         786|   -0.009333|    2.091621|    1.846977|   -0.835192|
|         787|   -0.002899|    2.087446|    1.847731|   -0.830302|
|         788|    0.003362|    2.083294|    1.848268|   -0.825551|
|         789|    0.009472|    2.079168|    1.848606|   -0.820800|
|         790|    0.015443|    2.075073|    1.848747|   -0.815923|
|         791|    0.021257|    2.071010|    1.848668|   -0.811175|
|         792|    0.026925|    2.066981|    1.848390|   -0.806723|
|         793|    0.032480|    2.062987|    1.847970|   -0.802394|
|         794|    0.037910|    2.059034|    1.847398|   -0.798072|
|         795|    0.043191|    2.055128|    1.846644|   -0.793823|
|         796|    0.048327|    2.051275|    1.845704|   -0.789591|
|         797|    0.053320|    2.047479|    1.844564|   -0.785277|
|         798|    0.058154|    2.043747|    1.843182|   -0.763024|
|         799|    0.062838|    2.040087|    1.841569|   -0.723890|
|         800|    0.067379|    2.036454|    1.839718|   -0.667627|
|         801|    0.071860|    2.032864|    1.837821|   -0.593085|
|         802|    0.076144|    2.029390|    1.837469|   -0.546998|
|         803|    0.080292|    2.026022|    1.839716|   -0.497092|
|         804|    0.084662|    2.022576|    1.841830|   -0.425358|
|         805|    0.089081|    2.019013|    1.844275|   -0.395660|
|         806|    0.093363|    2.015309|    1.846906|   -0.398176|
|         807|    0.097575|    2.011468|    1.849737|   -0.414755|
|         808|    0.101828|    2.007538|    1.852900|   -0.432213|
|         809|    0.105968|    2.003614|    1.855956|   -0.402729|
|         810|    0.109935|    1.999844|    1.858811|   -0.404819|
|         811|    0.113789|    1.996151|    1.861568|   -0.453354|
|         812|    0.117525|    1.992398|    1.864213|   -0.496365|
|         813|    0.121121|    1.988673|    1.866582|   -0.487830|
|         814|    0.124641|    1.984994|    1.868803|   -0.501674|
|         815|    0.128229|    1.981367|    1.871280|   -0.612624|
|         816|    0.131807|    1.977695|    1.873933|   -0.695482|
|         817|    0.135293|    1.974001|    1.876375|   -0.672015|
|         818|    0.138659|    1.970331|    1.878641|   -0.708117|
|         819|    0.142081|    1.966700|    1.881190|   -0.757686|
|         820|    0.145455|    1.962988|    1.883855|   -0.764608|
|         821|    0.148648|    1.959138|    1.886123|   -0.771139|
|         822|    0.151656|    1.955260|    1.888274|   -0.775375|
|         823|    0.154749|    1.951405|    1.890776|   -0.776113|
|         824|    0.157866|    1.947556|    1.893388|   -0.780026|
|         825|    0.160789|    1.943638|    1.895455|   -0.775967|
|         826|    0.163524|    1.939770|    1.897492|   -0.769714|
|         827|    0.166342|    1.935694|    1.899840|   -0.774088|
|         828|    0.169195|    1.931489|    1.902303|   -0.710556|
|         829|    0.171837|    1.927218|    1.904243|   -0.575442|
|         830|    0.174333|    1.922722|    1.906067|   -0.510723|
|         831|    0.176945|    1.917952|    1.908238|   -0.452650|
|         832|    0.179665|    1.912779|    1.910727|   -0.400372|
|         833|    0.182355|    1.907274|    1.913382|   -0.370294|
|         834|    0.184955|    1.901593|    1.916139|   -0.385118|
|         835|    0.187435|    1.895871|    1.919002|   -0.386959|
|         836|    0.189664|    1.890309|    1.921657|   -0.340109|
|         837|    0.191526|    1.884894|    1.923855|   -0.366529|
|         838|    0.193179|    1.879407|    1.925685|   -0.440609|
|         839|    0.194599|    1.874089|    1.927277|   -0.520087|
|         840|    0.196026|    1.869403|    1.928757|   -0.564895|
|         841|    0.197568|    1.865423|    1.930282|   -0.676777|
|         842|    0.199207|    1.862051|    1.932087|   -0.708949|
|         843|    0.200631|    1.858903|    1.933753|   -0.716824|
|         844|    0.201771|    1.855779|    1.934920|   -0.724709|
|         845|    0.202755|    1.852781|    1.935898|   -0.728357|
|         846|    0.203780|    1.849908|    1.937091|   -0.731084|
|         847|    0.204690|    1.847032|    1.938323|   -0.738456|
|         848|    0.205437|    1.844147|    1.939260|   -0.743414|
|         849|    0.206133|    1.841389|    1.940223|   -0.745455|
|         850|    0.206847|    1.838771|    1.941464|   -0.749539|
|         851|    0.207395|    1.836238|    1.942579|   -0.754898|
|         852|    0.207763|    1.833852|    1.943408|   -0.758450|
|         853|    0.208078|    1.831724|    1.944274|   -0.761678|
|         854|    0.208309|    1.829868|    1.945148|   -0.764781|
|         855|    0.208383|    1.828294|    1.945782|   -0.767905|
|         856|    0.208348|    1.827067|    1.946293|   -0.768529|
|         857|    0.208253|    1.826206|    1.946809|   -0.770037|
|         858|    0.208039|    1.825683|    1.947190|   -0.769558|
|         859|    0.207701|    1.825481|    1.947429|   -0.768465|
|         860|    0.207270|    1.825590|    1.947605|   -0.766174|
|         861|    0.206729|    1.825987|    1.947690|   -0.762965|
|         862|    0.206059|    1.826641|    1.947644|   -0.758879|
|         863|    0.205266|    1.827549|    1.947492|   -0.753454|
|         864|    0.204346|    1.828697|    1.947224|   -0.745859|
|         865|    0.203285|    1.830083|    1.946812|   -0.737528|
|         866|    0.202082|    1.831702|    1.946255|   -0.728763|
|         867|    0.200746|    1.833560|    1.945566|   -0.720554|
|         868|    0.199277|    1.835667|    1.944732|   -0.712461|
|         869|    0.197679|    1.838039|    1.943759|   -0.704720|
|         870|    0.195963|    1.840688|    1.942656|   -0.697034|
|         871|    0.194139|    1.843619|    1.941432|   -0.689958|
|         872|    0.192203|    1.846820|    1.940077|   -0.683266|
|         873|    0.190164|    1.850270|    1.938602|   -0.677397|
|         874|    0.188029|    1.853948|    1.937011|   -0.672317|
|         875|    0.185801|    1.857830|    1.935309|   -0.666680|
|         876|    0.183488|    1.861888|    1.933507|   -0.661184|
|         877|    0.181092|    1.866089|    1.931611|   -0.656934|
|         878|    0.178614|    1.870406|    1.929616|   -0.652651|
|         879|    0.176058|    1.874814|    1.927529|   -0.648219|
|         880|    0.173423|    1.879294|    1.925346|   -0.643920|
|         881|    0.170707|    1.883833|    1.923061|   -0.639639|
|         882|    0.167909|    1.888409|    1.920678|   -0.636475|
|         883|    0.165030|    1.893020|    1.918193|   -0.632891|
|         884|    0.162078|    1.897666|    1.915608|   -0.629080|
|         885|    0.159051|    1.902339|    1.912914|   -0.624572|
|         886|    0.155953|    1.907030|    1.910118|   -0.620112|
|         887|    0.152775|    1.911730|    1.907221|   -0.615278|
|         888|    0.149541|    1.916441|    1.904246|   -0.610660|
|         889|    0.146234|    1.921158|    1.901166|   -0.605721|
|         890|    0.142864|    1.925880|    1.898005|   -0.601160|
|         891|    0.139447|    1.930606|    1.894777|   -0.581985|
|         892|    0.136014|    1.935367|    1.891451|   -0.489225|
|         893|    0.132669|    1.940132|    1.887984|   -0.332462|
|         894|    0.129611|    1.944828|    1.884268|   -0.133109|
|         895|    0.127514|    1.949430|    1.880244|    0.049305|
|         896|    0.127798|    1.954129|    1.875537|    0.238009|
|         897|    0.128841|    1.959692|    1.870451|    0.374443|
|         898|    0.122147|    1.966017|    1.868595|    0.392368|
|         899|    0.117820|    1.971489|    1.870705|    0.437950|
|         900|    0.110973|    1.976875|    1.867518|    0.443093|
|         901|    0.109590|    1.982286|    1.865767|    0.412622|
|         902|    0.107600|    1.988736|    1.862874|    0.426157|
|         903|    0.100192|    1.993698|    1.857449|    0.396668|
|         904|    0.093231|    1.997823|    1.848616|    0.386844|
|         905|    0.088068|    2.001186|    1.842782|    0.359452|
|         906|    0.083714|    2.004370|    1.839758|    0.356533|
|         907|    0.079409|    2.007407|    1.837660|    0.338087|
|         908|    0.075264|    2.010359|    1.835696|    0.293623|
|         909|    0.070697|    2.013428|    1.833339|    0.264332|
|         910|    0.065720|    2.016682|    1.829834|    0.218933|
|         911|    0.060357|    2.020165|    1.825513|    0.178350|
|         912|    0.054572|    2.023874|    1.820738|    0.145127|
|         913|    0.048930|    2.027696|    1.815581|    0.091543|
|         914|    0.043555|    2.031640|    1.810472|    0.070718|
|         915|    0.038101|    2.035659|    1.805856|    0.018402|
|         916|    0.032496|    2.039674|    1.801270|   -0.007312|
|         917|    0.026904|    2.043636|    1.796625|   -0.037482|
|         918|    0.021289|    2.047524|    1.792139|   -0.081066|
|         919|    0.015649|    2.051317|    1.787789|   -0.119587|
|         920|    0.009957|    2.055024|    1.783538|   -0.130673|
|         921|    0.004069|    2.058647|    1.779354|   -0.197603|
|         922|   -0.002007|    2.062177|    1.775186|   -0.298286|
|         923|   -0.008205|    2.065613|    1.771090|   -0.393229|
|         924|   -0.014403|    2.068954|    1.767019|   -0.475056|
|         925|   -0.020741|    2.072208|    1.762952|   -0.463492|
|         926|   -0.027001|    2.075365|    1.758900|   -0.462020|
|         927|   -0.033396|    2.078405|    1.754988|   -0.471093|
|         928|   -0.040006|    2.081339|    1.750973|   -0.483110|
|         929|   -0.046839|    2.084173|    1.746711|   -0.495952|
|         930|   -0.053825|    2.086924|    1.742225|   -0.505792|
|         931|   -0.060903|    2.089617|    1.737538|   -0.515457|
|         932|   -0.068103|    2.092254|    1.732701|   -0.526707|
|         933|   -0.075409|    2.094840|    1.727714|   -0.537537|
|         934|   -0.082831|    2.097378|    1.722571|   -0.548063|
|         935|   -0.090382|    2.099860|    1.717310|   -0.557559|
|         936|   -0.098045|    2.102283|    1.711936|   -0.565212|
|         937|   -0.105816|    2.104639|    1.706447|   -0.570695|
|         938|   -0.113698|    2.106915|    1.700921|   -0.575882|
|         939|   -0.121689|    2.109101|    1.695347|   -0.579667|
|         940|   -0.129785|    2.111193|    1.689736|   -0.581385|
|         941|   -0.137981|    2.113181|    1.684119|   -0.584332|
|         942|   -0.146308|    2.115059|    1.678505|   -0.585526|
|         943|   -0.154769|    2.116824|    1.672909|   -0.580702|
|         944|   -0.163421|    2.118471|    1.667293|   -0.576462|
|         945|   -0.172254|    2.120012|    1.661658|   -0.576496|
|         946|   -0.181151|    2.121463|    1.656006|   -0.576542|
|         947|   -0.190133|    2.122827|    1.650305|   -0.576593|
|         948|   -0.199234|    2.124100|    1.644503|   -0.576984|
|         949|   -0.208440|    2.125279|    1.638493|   -0.578164|
|         950|   -0.217733|    2.126386|    1.632316|   -0.580424|
|         951|   -0.227068|    2.127435|    1.625956|   -0.583543|
|         952|   -0.236396|    2.128439|    1.619386|   -0.587510|
|         953|   -0.245674|    2.129409|    1.612606|   -0.591246|
|         954|   -0.254851|    2.130356|    1.605651|   -0.596964|
|         955|   -0.263881|    2.131287|    1.598602|   -0.607040|
|         956|   -0.272654|    2.132214|    1.591424|   -0.619517|
|         957|   -0.280810|    2.133145|    1.584215|   -0.619162|
|         958|   -0.289598|    2.134075|    1.577072|   -0.571960|
|         959|   -0.298023|    2.134953|    1.569890|   -0.571836|
|         960|   -0.307056|    2.135812|    1.563100|   -0.567463|
|         961|   -0.315382|    2.136679|    1.556430|   -0.564882|
|         962|   -0.323671|    2.137514|    1.550162|   -0.565946|
|         963|   -0.331850|    2.138326|    1.544329|   -0.577399|
|         964|   -0.340043|    2.139118|    1.538943|   -0.584414|
|         965|   -0.347939|    2.139892|    1.533991|   -0.598028|
|         966|   -0.355730|    2.140644|    1.529458|   -0.606880|
|         967|   -0.362997|    2.141375|    1.525302|   -0.609576|
|         968|   -0.370881|    2.142080|    1.521617|   -0.613904|
|         969|   -0.378722|    2.142756|    1.518308|   -0.610273|
|         970|   -0.386093|    2.143418|    1.515394|   -0.610199|
|         971|   -0.393139|    2.144075|    1.512886|   -0.607187|
|         972|   -0.399430|    2.144720|    1.510790|   -0.606312|
|         973|   -0.405051|    2.145347|    1.509281|   -0.610721|
|         974|   -0.410676|    2.145946|    1.508455|   -0.615796|
|         975|   -0.416114|    2.146506|    1.508277|   -0.626083|
[...]
|        2751|   -0.558832|    1.189987|    1.231351|   -0.318180|
|        2752|   -0.561188|    1.192205|    1.230194|   -0.348435|
|        2753|   -0.562086|    1.193840|    1.228267|   -0.304582|
|        2754|   -0.564759|    1.195938|    1.227093|   -0.309819|
|        2755|   -0.565711|    1.198009|    1.225157|   -0.260212|
|        2756|   -0.568752|    1.200822|    1.223791|   -0.285297|
|        2757|   -0.569756|    1.203506|    1.221688|   -0.276798|
|        2758|   -0.572666|    1.206593|    1.220047|   -0.290225|
|        2759|   -0.573911|    1.208940|    1.218178|   -0.305923|
|        2760|   -0.576754|    1.211911|    1.216112|   -0.305459|
|        2761|   -0.578186|    1.215160|    1.215431|   -0.349726|
|        2762|   -0.581073|    1.220168|    1.211460|   -0.307852|
|        2763|   -0.581483|    1.226419|    1.216242|   -0.349961|
|        2764|   -0.586845|    1.232659|    1.207128|   -0.314726|
|        2765|   -0.587431|    1.236781|    1.215455|   -0.340173|
|        2766|   -0.593492|    1.235526|    1.205153|   -0.276239|
|        2767|   -0.595536|    1.231373|    1.211519|   -0.315536|
|        2768|   -0.601659|    1.229305|    1.199830|   -0.257494|
|        2769|   -0.604221|    1.229408|    1.205224|   -0.282977|
|        2770|   -0.609254|    1.231008|    1.195631|   -0.245166|
|        2771|   -0.612987|    1.234152|    1.196857|   -0.275000|
|        2772|   -0.616910|    1.238049|    1.190812|   -0.245629|
|        2773|   -0.622294|    1.242122|    1.188174|   -0.287792|
|        2774|   -0.625921|    1.245961|    1.183768|   -0.294024|
|        2775|   -0.631701|    1.249744|    1.179058|   -0.333799|
|        2776|   -0.634540|    1.253198|    1.176956|   -0.351945|
|        2777|   -0.639571|    1.256309|    1.172631|   -0.370951|
|        2778|   -0.642587|    1.259540|    1.170691|   -0.400066|
|        2779|   -0.647238|    1.262610|    1.166857|   -0.372826|
|        2780|   -0.650981|    1.265723|    1.165088|   -0.390136|
|        2781|   -0.655452|    1.268685|    1.160681|   -0.384112|
|        2782|   -0.659909|    1.271912|    1.158975|   -0.383159|
|        2783|   -0.664048|    1.275127|    1.154494|   -0.339551|
|        2784|   -0.668894|    1.278539|    1.153054|   -0.344992|
|        2785|   -0.672482|    1.281662|    1.148675|   -0.305447|
|        2786|   -0.677828|    1.284967|    1.146660|   -0.311374|
|        2787|   -0.680445|    1.288309|    1.142906|   -0.269173|
|        2788|   -0.687126|    1.291938|    1.140184|   -0.289829|
|        2789|   -0.689709|    1.295368|    1.136723|   -0.259372|
|        2790|   -0.696918|    1.298923|    1.132692|   -0.288565|
|        2791|   -0.699749|    1.302206|    1.129062|   -0.299248|
|        2792|   -0.706746|    1.305476|    1.124515|   -0.310392|
|        2793|   -0.710256|    1.308579|    1.120560|   -0.340497|
|        2794|   -0.717592|    1.311664|    1.115411|   -0.305310|
|        2795|   -0.722476|    1.314545|    1.111383|   -0.343542|
|        2796|   -0.728895|    1.317238|    1.105715|   -0.319412|
|        2797|   -0.734976|    1.319754|    1.102065|   -0.351656|
|        2798|   -0.741242|    1.321988|    1.096373|   -0.322707|
|        2799|   -0.748783|    1.324162|    1.092224|   -0.335222|
|        2800|   -0.754611|    1.326140|    1.086649|   -0.292770|
|        2801|   -0.763114|    1.328147|    1.082117|   -0.316041|
|        2802|   -0.767981|    1.330003|    1.076999|   -0.273121|
|        2803|   -0.777221|    1.331913|    1.072068|   -0.309134|
|        2804|   -0.781684|    1.333683|    1.067450|   -0.278748|
|        2805|   -0.791860|    1.335514|    1.062253|   -0.316585|
|        2806|   -0.796381|    1.337239|    1.057342|   -0.314939|
|        2807|   -0.806708|    1.339021|    1.051932|   -0.355573|
|        2808|   -0.811953|    1.340684|    1.046757|   -0.372520|
|        2809|   -0.820677|    1.342292|    1.040864|   -0.384243|
|        2810|   -0.826084|    1.343768|    1.035848|   -0.415636|
|        2811|   -0.834168|    1.345176|    1.029762|   -0.376743|
|        2812|   -0.840940|    1.346520|    1.024721|   -0.398477|
|        2813|   -0.847460|    1.347854|    1.017785|   -0.401443|
|        2814|   -0.855926|    1.349279|    1.013100|   -0.407632|
|        2815|   -0.862190|    1.350685|    1.005288|   -0.362844|
|        2816|   -0.871959|    1.352245|    1.000391|   -0.370489|
|        2817|   -0.876756|    1.353780|    0.992497|   -0.322758|
|        2818|   -0.887413|    1.355489|    0.986887|   -0.332358|
|        2819|   -0.889950|    1.357139|    0.979319|   -0.282765|
|        2820|   -0.903352|    1.358941|    0.973045|   -0.309633|
|        2821|   -0.906386|    1.360557|    0.964811|   -0.270504|
|        2822|   -0.920491|    1.362296|    0.957294|   -0.301307|
|        2823|   -0.923965|    1.363834|    0.948592|   -0.312663|
|        2824|   -0.936927|    1.365432|    0.940657|   -0.316451|
|        2825|   -0.941844|    1.366859|    0.931467|   -0.348270|
|        2826|   -0.954823|    1.368303|    0.922929|   -0.309535|
|        2827|   -0.963471|    1.369584|    0.913266|   -0.342452|
|        2828|   -0.973125|    1.370818|    0.903755|   -0.328752|
|        2829|   -0.985182|    1.371992|    0.894625|   -0.355548|
|        2830|   -0.994107|    1.373031|    0.884428|   -0.319005|
|        2831|   -1.009048|    1.374026|    0.874910|   -0.340934|
|        2832|   -1.015089|    1.374845|    0.864367|   -0.297454|
|        2833|   -1.031709|    1.375628|    0.855518|   -0.322855|
|        2834|   -1.034307|    1.376195|    0.845205|   -0.287073|
|        2835|   -1.052746|    1.376728|    0.836755|   -0.315523|
|        2836|   -1.054441|    1.376985|    0.826937|   -0.294307|
|        2837|   -1.075069|    1.377188|    0.818799|   -0.332442|
|        2838|   -1.075308|    1.377117|    0.809347|   -0.338714|
|        2839|   -1.093786|    1.377021|    0.801797|   -0.369869|
|        2840|   -1.094959|    1.376723|    0.793715|   -0.405759|
|        2841|   -1.107855|    1.376409|    0.786359|   -0.377229|
|        2842|   -1.109825|    1.375989|    0.780453|   -0.415567|
|        2843|   -1.118026|    1.375566|    0.773721|   -0.391678|
|        2844|   -1.125151|    1.375104|    0.769709|   -0.412561|
|        2845|   -1.127229|    1.374611|    0.762486|   -0.398907|
|        2846|   -1.138840|    1.374167|    0.759820|   -0.403551|
|        2847|   -1.136342|    1.373651|    0.752606|   -0.343173|
|        2848|   -1.150145|    1.373216|    0.751231|   -0.370486|
|        2849|   -1.140584|    1.372715|    0.744558|   -0.330799|
|        2850|   -1.156180|    1.372336|    0.744210|   -0.332193|
|        2851|   -1.142367|    1.371821|    0.737995|   -0.286473|
|        2852|   -1.161701|    1.371435|    0.738513|   -0.313521|
|        2853|   -1.147775|    1.370862|    0.731401|   -0.306753|
|        2854|   -1.162018|    1.370439|    0.731581|   -0.320326|
|        2855|   -1.148160|    1.369854|    0.725724|   -0.349141|
|        2856|   -1.159084|    1.369385|    0.726547|   -0.317746|
|        2857|   -1.151325|    1.368781|    0.721449|   -0.354246|
|        2858|   -1.156884|    1.368238|    0.721074|   -0.333548|
|        2859|   -1.157487|    1.367608|    0.717873|   -0.356950|
|        2860|   -1.155267|    1.366908|    0.716134|   -0.349321|
|        2861|   -1.161338|    1.366127|    0.714903|   -0.352657|
|        2862|   -1.154784|    1.365199|    0.712461|   -0.309092|
|        2863|   -1.163986|    1.364300|    0.713148|   -0.342321|
|        2864|   -1.150267|    1.363333|    0.710473|   -0.288734|
|        2865|   -1.159522|    1.362493|    0.714361|   -0.325136|
|        2866|   -1.144161|    1.361496|    0.711592|   -0.305594|
|        2867|   -1.154417|    1.360625|    0.717669|   -0.324141|
|        2868|   -1.138904|    1.359508|    0.714160|   -0.337922|
|        2869|   -1.146055|    1.358519|    0.722407|   -0.349838|
|        2870|   -1.129785|    1.357274|    0.719449|   -0.393135|
|        2871|   -1.128697|    1.356157|    0.728455|   -0.367434|
|        2872|   -1.114674|    1.354775|    0.728867|   -0.427050|
|        2873|   -1.110489|    1.353446|    0.738895|   -0.381859|
|        2874|   -1.102335|    1.351872|    0.740647|   -0.412769|
|        2875|   -1.090262|    1.350300|    0.750257|   -0.416026|
|        2876|   -1.086407|    1.348597|    0.754744|   -0.420606|
|        2877|   -1.072263|    1.346807|    0.764158|   -0.362794|
|        2878|   -1.071703|    1.344948|    0.769601|   -0.390916|
|        2879|   -1.054598|    1.342982|    0.778116|   -0.332137|
|        2880|   -1.054738|    1.341082|    0.785905|   -0.362506|
|        2881|   -1.037330|    1.338967|    0.791686|   -0.314823|
|        2882|   -1.038142|    1.337044|    0.803060|   -0.338627|
|        2883|   -1.022110|    1.334823|    0.805888|   -0.298548|
|        2884|   -1.021466|    1.332909|    0.818641|   -0.334875|
|        2885|   -1.005848|    1.330681|    0.820120|   -0.356585|
|        2886|   -1.002671|    1.328807|    0.832007|   -0.323744|
|        2887|   -0.990223|    1.326613|    0.835465|   -0.370621|
|        2888|   -0.987313|    1.324654|    0.845087|   -0.330953|
|        2889|   -0.979281|    1.322363|    0.849450|   -0.367370|
|        2890|   -0.973028|    1.320290|    0.855980|   -0.357799|
|        2891|   -0.968394|    1.317919|    0.863710|   -0.380316|
|        2892|   -0.960611|    1.315681|    0.867914|   -0.320802|
|        2893|   -0.959232|    1.313030|    0.874648|   -0.356706|
|        2894|   -0.949938|    1.310570|    0.880950|   -0.301755|
|        2895|   -0.947302|    1.308101|    0.889049|   -0.336136|
|        2896|   -0.939593|    1.304908|    0.891643|   -0.315830|
|        2897|   -0.939160|    1.302502|    0.901226|   -0.333346|
|        2898|   -0.926750|    1.299842|    0.904944|   -0.334954|
|        2899|   -0.929283|    1.296649|    0.913714|   -0.351353|
|        2900|   -0.919087|    1.294260|    0.916855|   -0.376585|
|        2901|   -0.914003|    1.291179|    0.925496|   -0.371847|
|        2902|   -0.908092|    1.287602|    0.928173|   -0.424053|
|        2903|   -0.902946|    1.285545|    0.938622|   -0.364886|
|        2904|   -0.894666|    1.283100|    0.942257|   -0.418422|
|        2905|   -0.888401|    1.279318|    0.950590|   -0.389690|
|        2906|   -0.885151|    1.275616|    0.956554|   -0.417209|
|        2907|   -0.877514|    1.272799|    0.961990|   -0.385334|
|        2908|   -0.874161|    1.268865|    0.969203|   -0.401947|
|        2909|   -0.866357|    1.265481|    0.974532|   -0.346213|
|        2910|   -0.864189|    1.263580|    0.981393|   -0.372349|
|        2911|   -0.850058|    1.258973|    0.986722|   -0.342317|
|        2912|   -0.852607|    1.253934|    0.994311|   -0.345314|
|        2913|   -0.843168|    1.249463|    0.996826|   -0.325763|
|        2914|   -0.843196|    1.249071|    1.007989|   -0.334904|
|        2915|   -0.831514|    1.242623|    1.007884|   -0.337845|
|        2916|   -0.833398|    1.237429|    1.019687|   -0.336301|
|        2917|   -0.827232|    1.232133|    1.020015|   -0.374861|
|        2918|   -0.823355|    1.229021|    1.030328|   -0.320318|
|        2919|   -0.819285|    1.224686|    1.031629|   -0.368257|
|        2920|   -0.813637|    1.221228|    1.040145|   -0.326974|
|        2921|   -0.808507|    1.215521|    1.039813|   -0.359948|
|        2922|   -0.802436|    1.210374|    1.052093|   -0.336036|
|        2923|   -0.803122|    1.206213|    1.048614|   -0.376238|
|        2924|   -0.791502|    1.202358|    1.067419|   -0.302729|
|        2925|   -0.798176|    1.197710|    1.055032|   -0.349312|
|        2926|   -0.784291|    1.194365|    1.079452|   -0.293524|
|        2927|   -0.793287|    1.189512|    1.063771|   -0.335741|
|        2928|   -0.782171|    1.185932|    1.082581|   -0.322607|
|        2929|   -0.788037|    1.182652|    1.072671|   -0.327873|
|        2930|   -0.778696|    1.179881|    1.083781|   -0.336381|
|        2931|   -0.782259|    1.176594|    1.081455|   -0.327520|
|        2932|   -0.775373|    1.173828|    1.084904|   -0.375446|
|        2933|   -0.775408|    1.170544|    1.088940|   -0.344992|
|        2934|   -0.771376|    1.167216|    1.088155|   -0.414579|
|        2935|   -0.768885|    1.164422|    1.093921|   -0.351235|
|        2936|   -0.766578|    1.160621|    1.092549|   -0.419205|
|        2937|   -0.763034|    1.157562|    1.097633|   -0.368179|
|        2938|   -0.761040|    1.153661|    1.097552|   -0.403757|
|        2939|   -0.758010|    1.150663|    1.100218|   -0.377392|
|        2940|   -0.756995|    1.146713|    1.102503|   -0.407760|
|        2941|   -0.755429|    1.143575|    1.102219|   -0.348986|
|        2942|   -0.755203|    1.139421|    1.103999|   -0.375599|
|        2943|   -0.751837|    1.135770|    1.105844|   -0.334257|
|        2944|   -0.751698|    1.132490|    1.109247|   -0.356683|
|        2945|   -0.748467|    1.128804|    1.108103|   -0.336237|
|        2946|   -0.748564|    1.125893|    1.111255|   -0.311618|
|        2947|   -0.743004|    1.123402|    1.110168|   -0.322010|
|        2948|   -0.744871|    1.120074|    1.114927|   -0.317489|
|        2949|   -0.741608|    1.116225|    1.112090|   -0.361346|
|        2950|   -0.739973|    1.114729|    1.117141|   -0.329498|
|        2951|   -0.737887|    1.111179|    1.116930|   -0.382797|
|        2952|   -0.737448|    1.109630|    1.118217|   -0.323495|
|        2953|   -0.734344|    1.106228|    1.118016|   -0.377540|
|        2954|   -0.734978|    1.103973|    1.118757|   -0.334486|
|        2955|   -0.732775|    1.101745|    1.120739|   -0.369813|
|        2956|   -0.731301|    1.102266|    1.120649|   -0.334497|
|        2957|   -0.732279|    1.097562|    1.119371|   -0.373913|
|        2958|   -0.729327|    1.095528|    1.122453|   -0.322000|
|        2959|   -0.732685|    1.095094|    1.121936|   -0.353657|
|        2960|   -0.727492|    1.092305|    1.122050|   -0.314970|
|        2961|   -0.729854|    1.092142|    1.122675|   -0.336410|
|        2962|   -0.731512|    1.090113|    1.120721|   -0.341478|
|        2963|   -0.731872|    1.087973|    1.123431|   -0.337292|
|        2964|   -0.731464|    1.087015|    1.121838|   -0.357195|
|        2965|   -0.731922|    1.087079|    1.122884|   -0.333739|
|        2966|   -0.731223|    1.086147|    1.120761|   -0.392089|
|        2967|   -0.730547|    1.086312|    1.123004|   -0.357233|
|        2968|   -0.730531|    1.087147|    1.120676|   -0.425147|
|        2969|   -0.729528|    1.087370|    1.123033|   -0.357939|
|        2970|   -0.730006|    1.087591|    1.121187|   -0.423057|
|        2971|   -0.729243|    1.088171|    1.122012|   -0.366078|
|        2972|   -0.729438|    1.089803|    1.121547|   -0.409751|
|        2973|   -0.729240|    1.090740|    1.120633|   -0.378737|
|        2974|   -0.729862|    1.092489|    1.120728|   -0.411003|
|        2975|   -0.730273|    1.093839|    1.119727|   -0.356390|
|        2976|   -0.731392|    1.095965|    1.119645|   -0.383153|
|        2977|   -0.731433|    1.096896|    1.117959|   -0.333849|
|        2978|   -0.732384|    1.098955|    1.118284|   -0.363138|
|        2979|   -0.732314|    1.100970|    1.116139|   -0.342353|
|        2980|   -0.733532|    1.102775|    1.117375|   -0.337705|
|        2981|   -0.732799|    1.104293|    1.114736|   -0.331483|
|        2982|   -0.735080|    1.106856|    1.114999|   -0.326128|
|        2983|   -0.733428|    1.108572|    1.112776|   -0.352107|
|        2984|   -0.735438|    1.111113|    1.112618|   -0.326816|
|        2985|   -0.733803|    1.113180|    1.110932|   -0.373122|
|        2986|   -0.736433|    1.116129|    1.110247|   -0.316717|
|        2987|   -0.735760|    1.118219|    1.108381|   -0.377680|
|        2988|   -0.737859|    1.120654|    1.107003|   -0.324584|
|        2989|   -0.737375|    1.122877|    1.105556|   -0.379690|
|        2990|   -0.739314|    1.125780|    1.104113|   -0.335606|
|        2991|   -0.740662|    1.128214|    1.102684|   -0.369550|
|        2992|   -0.741983|    1.130887|    1.100717|   -0.305329|
|        2993|   -0.744345|    1.133573|    1.099054|   -0.351578|
|        2994|   -0.745243|    1.136277|    1.096608|   -0.298120|
|        2995|   -0.746964|    1.139252|    1.095967|   -0.340947|
|        2996|   -0.747283|    1.141866|    1.092630|   -0.322276|
|        2997|   -0.744840|    1.145492|    1.093853|   -0.328025|
|        2998|   -0.743940|    1.150044|    1.088720|   -0.341083|
|        2999|   -0.729108|    1.158384|    1.101744|   -0.314536|
|        3000|   -0.736527|    1.176417|    1.093316|   -0.350631|
+-----------------------------------------------------------------------+
|        File Writing Summary       |              Filename             |
+-----------------------------------------------------------------------+
|SU2 restart                        |restart_venturi_mixturedensity_30kW_fine_test.dat|
|                                   |                     (17.1558 MB/s)|
|Paraview                           |flow_venturi_mixturedensity_30kW_fine_test_00003000.vtu|
|                                   |                     (1.04802 MB/s)|
|Paraview surface                   |surface_flow_venturi_mixturedensity_30kW_fine_test.vtu|
|                                   |                    (0.993287 MB/s)|
+-----------------------------------------------------------------------+
+----------------------------------------------------------------+
|  Inner_Iter|      rms[P]|      rms[U]|      rms[V]|      rms[c]|
+----------------------------------------------------------------+
|        3001|   -0.737079|    1.179387|    1.111309|   -0.311752|
|        3002|   -0.748301|    1.178536|    1.089218|   -0.380415|
|        3003|   -0.746091|    1.174245|    1.109141|   -0.342698|
|        3004|   -0.757260|    1.178652|    1.085446|   -0.410022|
|        3005|   -0.754877|    1.190861|    1.096809|   -0.361936|
|        3006|   -0.763161|    1.203603|    1.080162|   -0.413574|
|        3007|   -0.762803|    1.215525|    1.081172|   -0.372514|
|        3008|   -0.768685|    1.221332|    1.070662|   -0.415022|
|        3009|   -0.767418|    1.222912|    1.070064|   -0.405889|
|        3010|   -0.771311|    1.221393|    1.065821|   -0.425300|
|        3011|   -0.773202|    1.217334|    1.061603|   -0.393352|
|        3012|   -0.777139|    1.213492|    1.059484|   -0.404229|
|        3013|   -0.780382|    1.210344|    1.054320|   -0.362434|
|        3014|   -0.785172|    1.209131|    1.051971|   -0.372460|
|        3015|   -0.786764|    1.209482|    1.045450|   -0.363940|
|        3016|   -0.792996|    1.210694|    1.042383|   -0.355555|
|        3017|   -0.795324|    1.212844|    1.036147|   -0.350765|
|        3018|   -0.800649|    1.216983|    1.034596|   -0.328747|
|        3019|   -0.801461|    1.218670|    1.027459|   -0.361973|
|        3020|   -0.806699|    1.221644|    1.027225|   -0.326267|
|        3021|   -0.808006|    1.224780|    1.020434|   -0.377450|
|        3022|   -0.810992|    1.228262|    1.020024|   -0.330044|
|        3023|   -0.813814|    1.230871|    1.013474|   -0.397133|
|        3024|   -0.817767|    1.234051|    1.011358|   -0.336116|
|        3025|   -0.819916|    1.237770|    1.005450|   -0.386028|
|        3026|   -0.823104|    1.241304|    1.002330|   -0.332208|
|        3027|   -0.822272|    1.243481|    0.996938|   -0.386534|
|        3028|   -0.828290|    1.245968|    0.993811|   -0.333834|
|        3029|   -0.832393|    1.249108|    0.987866|   -0.384891|
|        3030|   -0.833800|    1.254261|    0.984659|   -0.327920|
|        3031|   -0.836852|    1.260625|    0.977694|   -0.376711|
|        3032|   -0.836406|    1.262278|    0.980196|   -0.322391|
|        3033|   -0.847032|    1.267541|    0.968927|   -0.362848|
