scsub> Executing:  'cd /home/hem1dev/Codes/SU2_Github_Mark_Test/SU2/Venturi'


WARNING: CONV_CRITERIA is deprecated. SU2 will choose the criteria automatically based on the CONV_FIELD.
That is, RESIDUAL for any RMS_* BGS_* value, and CAUCHY for coefficients such as DRAG etc.


-------------------------------------------------------------------------
|    ___ _   _ ___                                                      |
|   / __| | | |_  )   Release 7.1.1 "Blackbird"                         |
|   \__ \ |_| |/ /                                                      |
|   |___/\___//___|   Suite (Computational Fluid Dynamics Code)         |
|                                                                       |
-------------------------------------------------------------------------
| SU2 Project Website: https://su2code.github.io                        |
|                                                                       |
| The SU2 Project is maintained by the SU2 Foundation                   |
| (http://su2foundation.org)                                            |
-------------------------------------------------------------------------
| Copyright 2012-2021, SU2 Contributors                                 |
|                                                                       |
| SU2 is free software; you can redistribute it and/or                  |
| modify it under the terms of the GNU Lesser General Public            |
| License as published by the Free Software Foundation; either          |
| version 2.1 of the License, or (at your option) any later version.    |
|                                                                       |
| SU2 is distributed in the hope that it will be useful,                |
| but WITHOUT ANY WARRANTY; without even the implied warranty of        |
| MERCHANTABILITY or FITNESS FOR A PARTICULAR PURPOSE. See the GNU      |
| Lesser General Public License for more details.                       |
|                                                                       |
| You should have received a copy of the GNU Lesser General Public      |
| License along with SU2. If not, see <http://www.gnu.org/licenses/>.   |
-------------------------------------------------------------------------


WARNING: CONV_CRITERIA is deprecated. SU2 will choose the criteria automatically based on the CONV_FIELD.
That is, RESIDUAL for any RMS_* BGS_* value, and CAUCHY for coefficients such as DRAG etc.


Parsing config file for zone 0


WARNING: CONV_CRITERIA is deprecated. SU2 will choose the criteria automatically based on the CONV_FIELD.
That is, RESIDUAL for any RMS_* BGS_* value, and CAUCHY for coefficients such as DRAG etc.


----------------- Physical Case Definition ( Zone 0 ) -------------------
Incompressible RANS equations.
Turbulence model: Menter's SST
Hybrid RANS/LES: No Hybrid RANS/LES
No restart solution, use the values at infinity (freestream).
Dimensional simulation.
The reference area is 1 m^2.
The semi-span will be computed using the max y(3D) value.
The reference length is 1 m.
Input mesh file name: c6_cms_venturi.cgns

--------------- Space Numerical Integration ( Zone 0 ) ------------------
Flux difference splitting (FDS) upwind scheme for the flow inviscid terms.
Second order integration in space, with slope limiter.
No slope-limiting method. 
Average of gradients with correction (viscous flow terms).
Average of gradients with correction (viscous turbulence terms).
Gradient for upwind reconstruction: inverse-distance weighted Least-Squares.
Gradient for viscous and source terms: inverse-distance weighted Least-Squares.

--------------- Time Numerical Integration  ( Zone 0 ) ------------------
Local time stepping (steady state simulation).
Euler implicit method for the flow equations.
FGMRES is used for solving the linear system.
Using a ILU(0) preconditioning.
Convergence criteria of the linear solver: 1e-08.
Max number of linear iterations: 20.
No CFL adaptation.
Courant-Friedrichs-Lewy number:      100
Euler implicit time integration for the turbulence model.

------------------ Convergence Criteria  ( Zone 0 ) ---------------------
Maximum number of solver subiterations: 10000.
Begin convergence monitoring at iteration 10.
Residual minimum value: 1e-10.
Cauchy series min. value: 1e-06.
Number of Cauchy elements: 100.
Begin windowed time average at iteration 0.

-------------------- Output Information ( Zone 0 ) ----------------------
Writing solution files every 1000 iterations.
Writing the convergence history file every 1 inner iterations.
Writing the screen convergence history every 1 inner iterations.
The tabular file format is CSV (.csv).
Convergence history file name: history_test.
Forces breakdown file name: forces_breakdown.dat.
Surface file name: surface_flow_venturi_mixturedensity_30kW_fine_test.
Volume file name: flow_venturi_mixturedensity_30kW_fine_test.
Restart file name: restart_venturi_mixturedensity_30kW_fine_test.dat.

------------- Config File Boundary Information ( Zone 0 ) ---------------
+-----------------------------------------------------------------------+
|                        Marker Type|                        Marker Name|
+-----------------------------------------------------------------------+
|                     Symmetry plane|                               axis|
+-----------------------------------------------------------------------+
|                     Inlet boundary|                          gas_inlet|
|                                   |                          air_inlet|
+-----------------------------------------------------------------------+
|                    Outlet boundary|                             outlet|
+-----------------------------------------------------------------------+
|                     Heat flux wall|            wall-component1-surface|
+-----------------------------------------------------------------------+

-------------------- Output Preprocessing ( Zone 0 ) --------------------
Screen output fields: INNER_ITER, RMS_PRESSURE, RMS_VELOCITY-X, RMS_VELOCITY-Y, RMS_PASSIVE_SCALAR
History output group(s): RMS_RES, AERO_COEFF, FLOW_COEFF
Convergence field(s): RMS_PRESSURE, RMS_VELOCITY-X, RMS_VELOCITY-Y, RMS_TKE
Warning: No (valid) fields chosen for time convergence monitoring. Time convergence monitoring inactive.
  Info: Ignoring the following volume output fields/groups:
  SOURCE, LOOKUP
Volume output fields: DENSITY, SOLUTION, PRIMITIVE, RESIDUAL, COORDINATES

------------------- Geometry Preprocessing ( Zone 0 ) -------------------
Reading the CGNS file: c6_cms_venturi.cgns.
CGNS file contains 1 database(s).
Database 1, Base:  cell dimension of 2, physical dimension of 2.
1 total zone(s).
Zone 1, Zone: 292948 total vertices, 295883 total elements.
Loading CoordinateX values into linear partitions.
Loading CoordinateY values into linear partitions.
Distributing connectivity across all ranks.
Number of connectivity sections is 6.
Section gas_inlet contains 51 elements of type Mixed.
Section air_inlet contains 150 elements of type Mixed.
Section outlet contains 157 elements of type Mixed.
Section axis contains 1721 elements of type Mixed.
Section component1-surface contains 290183 elements of type Mixed.
Section wall-component1-surface contains 3621 elements of type Mixed.
Loading surface section gas_inlet from file.
Loading surface section air_inlet from file.
Loading surface section outlet from file.
Loading surface section axis from file.
Loading volume section component1-surface from file.
Loading surface section wall-component1-surface from file.
Two dimensional problem.
292948 grid points before partitioning.
290183 volume elements before partitioning.
5 surface markers.
51 boundary elements in index 0 (Marker = gas_inlet).
150 boundary elements in index 1 (Marker = air_inlet).
157 boundary elements in index 2 (Marker = outlet).
1721 boundary elements in index 3 (Marker = axis).
3621 boundary elements in index 4 (Marker = wall-component1-surface).
Executing the partitioning functions.
Building the graph adjacency structure.
Calling ParMETIS... graph partitioning complete (13660 edge cuts).
Distributing ParMETIS coloring.
Rebalancing vertices.
Rebalancing volume element connectivity.
Rebalancing markers and surface elements.
320613 vertices including ghost points. 
303879 interior elements including halo cells. 
174 triangles.
303705 quadrilaterals.
Establishing MPI communication patterns.
Setting point connectivity.
Renumbering points (Reverse Cuthill McKee Ordering).
Recomputing point connectivity.
Setting element connectivity.
Checking the numerical grid orientation.
All volume elements are correctly orientend.
All surface elements are correctly orientend.
Identifying edges and vertices.
Setting the control volume structure.
Area of the computational grid: 0.00286002.
Searching for the closest normal neighbors to the surfaces.
Storing a mapping from global to local point index.
Compute the surface curvature.
Max K: 25766.3. Mean K: 66.0693. Standard deviation K: 1007.76.
Checking for periodicity.
Computing mesh quality statistics for the dual control volumes.
+--------------------------------------------------------------+
|           Mesh Quality Metric|        Minimum|        Maximum|
+--------------------------------------------------------------+
|    Orthogonality Angle (deg.)|        45.2115|             90|
|     CV Face Area Aspect Ratio|              1|        10.3208|
|           CV Sub-Volume Ratio|              1|        9.85984|
+--------------------------------------------------------------+
Finding max control volume width.
Communicating number of neighbors.
Wetted area = 0 m.
Area projection in the x-plane = 0 m, y-plane = 0 m.
Max. coordinate in the x-direction = -1e+10 m, y-direction = -1e+10 m.
Min. coordinate in the x-direction = 1e+10 m, y-direction = 1e+10 m.
Checking if Euler & Symmetry markers are straight/plane:
Boundary marker axis is a single straight.
Computing wall distances.

-------------------- Solver Preprocessing ( Zone 0 ) --------------------
Incompressible flow: rho_ref, vel_ref, temp_ref, p_ref
are set to 1.0 in order to perform a dimensional calculation.
Force coefficients computed using initial values.
The reference area for force coeffs. is 1 m^2.
The reference length for force coeffs. is 1 m.
The pressure is decomposed into thermodynamic and dynamic components.
The initial value of the dynamic pressure is 0.
Mach number: 0, computed using fluid speed of sound.
For external flows, the initial state is imposed at the far-field.
Angle of attack (deg): 0, computed using the initial velocity.
Side slip angle (deg): 0, computed using the initial velocity.
Reynolds number per meter: 65290.8, computed using initial values.
Reynolds number is a byproduct of inputs only (not used internally).
SI units only. The grid should be dimensional (meters).
Energy equation is active and coupled for variable density.

-- Models:
+------------------------------------------------------------------------------+
|          Viscosity Model|        Conductivity Model|              Fluid Model|
+------------------------------------------------------------------------------+
|       CONSTANT_VISCOSITY|          CONSTANT_PRANDTL|+------------------------------------------------------------------------------+
-- Fluid properties:
+------------------------------------------------------------------------------+
|                  Name|    Dim. value|    Ref. value|      Unit|Non-dim. value|
+------------------------------------------------------------------------------+
|             Viscosity|     1.118e-05|             1|   N.s/m^2|     1.118e-05|
+------------------------------------------------------------------------------+
|        Prandtl (Lam.)|             -|             -|         -|          0.72|
|       Prandtl (Turb.)|             -|             -|         -|           0.9|
+------------------------------------------------------------------------------+
-- Initial and free-stream conditions:
+------------------------------------------------------------------------------+
|                  Name|    Dim. value|    Ref. value|      Unit|Non-dim. value|
+------------------------------------------------------------------------------+
|      Dynamic Pressure|             0|             1|        Pa|             0|
|        Total Pressure|      0.585985|             1|        Pa|      0.585985|
|               Density|       1.17197|             1|    kg/m^3|       1.17197|
|           Temperature|           300|             1|         K|           300|
|            Velocity-X|             1|             1|       m/s|             1|
|            Velocity-Y|             0|             1|       m/s|             0|
|    Velocity Magnitude|             1|             1|       m/s|             1|
+------------------------------------------------------------------------------+
|             Viscosity|     1.795e-05|             1|   N.s/m^2|     1.795e-05|
|          Conductivity|             -|             1|   W/m^2.K|             -|
|     Turb. Kin. Energy|       0.00375|             1|   m^2/s^2|       0.00375|
|     Spec. Dissipation|       24.4841|             1|       1/s|       24.4841|
+------------------------------------------------------------------------------+
|           Mach Number|             -|             -|         -|             0|
|       Reynolds Number|             -|             -|         -|       65290.8|
+------------------------------------------------------------------------------+
Initialize Jacobian structure (Navier-Stokes). MG level: 0.
Initialize Jacobian structure (passive scalar model).
Initialize Jacobian structure (SST model).

------------------- Numerics Preprocessing ( Zone 0 ) -------------------

----------------- Integration Preprocessing ( Zone 0 ) ------------------

------------------- Iteration Preprocessing ( Zone 0 ) ------------------
Euler/Navier-Stokes/RANS fluid iteration.

------------------------------ Begin Solver -----------------------------

Simulation Run using the Single-zone Driver
Initializing passive scalar (initial condition).
initialization = 1 1
+----------------------------------------------------------------+
|  Inner_Iter|      rms[P]|      rms[U]|      rms[V]|      rms[c]|
+----------------------------------------------------------------+
|           0|   -5.116953|   -4.847332|   -4.364756|   -5.721765|
|           1|   -4.995791|   -4.851353|   -4.078100|   -5.301024|
|           2|   -5.396161|   -4.582758|   -4.043775|   -5.364975|
|           3|   -5.502432|   -4.777643|   -4.089974|   -5.472590|
|           4|   -5.685140|   -4.863984|   -4.144387|   -5.521575|
|           5|   -5.628200|   -4.911158|   -4.339532|   -5.552567|
|           6|   -5.717554|   -4.869992|   -4.544073|   -5.583126|
|           7|   -5.764977|   -4.812413|   -4.682388|   -5.633116|
|           8|   -5.797363|   -4.772695|   -4.676355|   -5.691880|
|           9|   -5.796521|   -4.750594|   -4.564695|   -5.735723|
|          10|   -5.768800|   -4.736805|   -4.404924|   -5.754176|
|          11|   -5.746406|   -4.724870|   -4.311118|   -5.751270|
|          12|   -5.753155|   -4.712799|   -4.283460|   -5.736679|
|          13|   -5.783774|   -4.699264|   -4.293470|   -5.719528|
|          14|   -5.821983|   -4.681996|   -4.322636|   -5.705597|
|          15|   -5.856749|   -4.659413|   -4.356921|   -5.696759|
|          16|   -5.884749|   -4.632731|   -4.383168|   -5.692219|
|          17|   -5.905422|   -4.604801|   -4.392606|   -5.690029|
|          18|   -5.919141|   -4.578050|   -4.385257|   -5.688394|
|          19|   -5.927958|   -4.553599|   -4.368106|   -5.686077|
|          20|   -5.935005|   -4.531529|   -4.349266|   -5.682498|
|          21|   -5.942886|   -4.511462|   -4.334192|   -5.677623|
|          22|   -5.952662|   -4.492999|   -4.324734|   -5.671794|
|          23|   -5.964032|   -4.475845|   -4.320368|   -5.665464|
|          24|   -5.976118|   -4.459789|   -4.318925|   -5.659011|
|          25|   -5.988037|   -4.444624|   -4.317991|   -5.652667|
|          26|   -5.999212|   -4.430163|   -4.317064|   -5.646525|
|          27|   -6.009417|   -4.416300|   -4.315488|   -5.640574|
|          28|   -6.018692|   -4.402954|   -4.313257|   -5.634772|
|          29|   -6.027208|   -4.390077|   -4.310723|   -5.629031|
|          30|   -6.035152|   -4.377591|   -4.308370|   -5.623333|
|          31|   -6.042624|   -4.365403|   -4.306453|   -5.617681|
|          32|   -6.049681|   -4.353423|   -4.305108|   -5.612070|
|          33|   -6.056304|   -4.341604|   -4.304225|   -5.606483|
|          34|   -6.062457|   -4.329955|   -4.303468|   -5.600927|
|          35|   -6.068104|   -4.318518|   -4.302557|   -5.595439|
|          36|   -6.073229|   -4.307317|   -4.300436|   -5.590088|
|          37|   -6.077918|   -4.296371|   -4.296644|   -5.584942|
|          38|   -6.082247|   -4.285683|   -4.291075|   -5.580048|
|          39|   -6.086246|   -4.275284|   -4.285511|   -5.575407|
|          40|   -6.089775|   -4.265163|   -4.280623|   -5.570965|
|          41|   -6.092784|   -4.255264|   -4.276845|   -5.566658|
|          42|   -6.095354|   -4.245448|   -4.273985|   -5.562495|
|          43|   -6.097613|   -4.235554|   -4.271855|   -5.558555|
|          44|   -6.099628|   -4.225496|   -4.270234|   -5.554899|
|          45|   -6.101338|   -4.215448|   -4.269692|   -5.551526|
|          46|   -6.102661|   -4.205838|   -4.270541|   -5.548385|
|          47|   -6.103592|   -4.197109|   -4.272096|   -5.545380|
|          48|   -6.104300|   -4.189593|   -4.273159|   -5.542384|
|          49|   -6.104970|   -4.183410|   -4.274744|   -5.539333|
|          50|   -6.105099|   -4.178593|   -4.276735|   -5.536269|
|          51|   -6.104503|   -4.174938|   -4.279109|   -5.533267|
|          52|   -6.103456|   -4.172212|   -4.282004|   -5.530434|
|          53|   -6.101748|   -4.170135|   -4.285517|   -5.527766|
|          54|   -6.100195|   -4.168734|   -4.289537|   -5.525195|
|          55|   -6.098836|   -4.168085|   -4.293695|   -5.522523|
|          56|   -6.097138|   -4.168058|   -4.297636|   -5.519490|
|          57|   -6.095285|   -4.168553|   -4.300842|   -5.515877|
|          58|   -6.092991|   -4.169417|   -4.302821|   -5.511538|
|          59|   -6.089418|   -4.170250|   -4.303250|   -5.506397|
|          60|   -6.083852|   -4.170382|   -4.301933|   -5.500431|
|          61|   -6.076407|   -4.169173|   -4.299012|   -5.493608|
|          62|   -6.067167|   -4.166223|   -4.294342|   -5.485909|
|          63|   -6.055714|   -4.161275|   -4.287479|   -5.477351|
|          64|   -6.042335|   -4.154631|   -4.277859|   -5.467886|
|          65|   -6.026640|   -4.146800|   -4.264622|   -5.457491|
|          66|   -6.008364|   -4.138414|   -4.246628|   -5.446101|
|          67|   -5.987022|   -4.129646|   -4.223067|   -5.433677|
|          68|   -5.962649|   -4.120595|   -4.194019|   -5.420285|
|          69|   -5.935205|   -4.111340|   -4.160644|   -5.406153|
|          70|   -5.907131|   -4.102582|   -4.124898|   -5.391579|
|          71|   -5.877063|   -4.093647|   -4.089002|   -5.377515|
|          72|   -5.846249|   -4.084297|   -4.056054|   -5.365656|
|          73|   -5.817577|   -4.073861|   -4.028946|   -5.357816|
|          74|   -5.794275|   -4.060957|   -4.010296|   -5.355136|
|          75|   -5.778601|   -4.045628|   -4.001956|   -5.357401|
|          76|   -5.770595|   -4.029507|   -4.005283|   -5.363091|
|          77|   -5.768240|   -4.015345|   -4.016665|   -5.369996|
|          78|   -5.771517|   -4.005919|   -4.029186|   -5.376607|
|          79|   -5.776036|   -4.000566|   -4.040555|   -5.382751|
|          80|   -5.783349|   -3.998818|   -4.050345|   -5.388246|
|          81|   -5.789975|   -3.998017|   -4.059806|   -5.392965|
|          82|   -5.794921|   -3.995887|   -4.067749|   -5.396305|
|          83|   -5.794422|   -3.991203|   -4.074684|   -5.398517|
|          84|   -5.789053|   -3.983080|   -4.080186|   -5.400101|
|          85|   -5.779308|   -3.972959|   -4.082425|   -5.399795|
|          86|   -5.768382|   -3.962388|   -4.078455|   -5.396793|
|          87|   -5.757750|   -3.952264|   -4.067450|   -5.390443|
|          88|   -5.747285|   -3.943573|   -4.046951|   -5.380209|
|          89|   -5.733372|   -3.935955|   -4.017923|   -5.367171|
|          90|   -5.712037|   -3.928202|   -3.986914|   -5.354346|
|          91|   -5.687798|   -3.918976|   -3.960940|   -5.344676|
|          92|   -5.667391|   -3.909514|   -3.943934|   -5.339501|
|          93|   -5.656812|   -3.903031|   -3.935155|   -5.339026|
|          94|   -5.656017|   -3.901154|   -3.933898|   -5.341227|
|          95|   -5.661003|   -3.902507|   -3.937768|   -5.345565|
|          96|   -5.669868|   -3.905667|   -3.943900|   -5.351351|
|          97|   -5.680434|   -3.908450|   -3.950788|   -5.357969|
|          98|   -5.691755|   -3.910069|   -3.958698|   -5.365197|
|          99|   -5.705252|   -3.911436|   -3.967312|   -5.372537|
|         100|   -5.719422|   -3.913340|   -3.977348|   -5.379704|
|         101|   -5.735125|   -3.916649|   -3.989034|   -5.386157|
|         102|   -5.750242|   -3.920871|   -4.002493|   -5.392497|
|         103|   -5.766021|   -3.926229|   -4.016737|   -5.398545|
|         104|   -5.783131|   -3.932788|   -4.031312|   -5.403280|
|         105|   -5.801175|   -3.939970|   -4.045572|   -5.405539|
|         106|   -5.817411|   -3.947833|   -4.057367|   -5.405094|
|         107|   -5.830890|   -3.956862|   -4.065236|   -5.401473|
|         108|   -5.832480|   -3.965765|   -4.069442|   -5.396354|
|         109|   -5.827439|   -3.972515|   -4.069528|   -5.390091|
|         110|   -5.815108|   -3.976472|   -4.067890|   -5.383657|
|         111|   -5.802161|   -3.978965|   -4.064709|   -5.378218|
|         112|   -5.793796|   -3.980142|   -4.060464|   -5.372983|
|         113|   -5.785353|   -3.980324|   -4.057008|   -5.368663|
|         114|   -5.779625|   -3.980671|   -4.054820|   -5.365520|
|         115|   -5.774886|   -3.981479|   -4.054372|   -5.363722|
|         116|   -5.772349|   -3.982278|   -4.056096|   -5.363126|
|         117|   -5.771465|   -3.984032|   -4.060661|   -5.364213|
|         118|   -5.773925|   -3.986579|   -4.067750|   -5.366924|
|         119|   -5.778036|   -3.990539|   -4.076629|   -5.371317|
|         120|   -5.783215|   -3.995752|   -4.086215|   -5.377385|
|         121|   -5.790696|   -4.002235|   -4.095006|   -5.384693|
|         122|   -5.798348|   -4.010082|   -4.101882|   -5.392782|
|         123|   -5.805669|   -4.018859|   -4.105710|   -5.401076|
|         124|   -5.812161|   -4.028172|   -4.106632|   -5.409290|
|         125|   -5.816172|   -4.037601|   -4.104874|   -5.417330|
|         126|   -5.816556|   -4.046214|   -4.100778|   -5.425379|
|         127|   -5.816348|   -4.053670|   -4.095479|   -5.433849|
|         128|   -5.815135|   -4.059997|   -4.090621|   -5.442687|
|         129|   -5.815297|   -4.065724|   -4.086522|   -5.452053|
|         130|   -5.821445|   -4.071902|   -4.082586|   -5.461809|
|         131|   -5.835256|   -4.078546|   -4.079891|   -5.470218|
|         132|   -5.849621|   -4.085217|   -4.079364|   -5.477364|
|         133|   -5.862188|   -4.091081|   -4.080295|   -5.483175|
|         134|   -5.873300|   -4.096216|   -4.082191|   -5.487759|
|         135|   -5.882387|   -4.100464|   -4.084688|   -5.491081|
|         136|   -5.888576|   -4.103615|   -4.087010|   -5.493170|
|         137|   -5.891741|   -4.105623|   -4.088532|   -5.494214|
|         138|   -5.891818|   -4.106608|   -4.089099|   -5.494585|
|         139|   -5.889451|   -4.106983|   -4.088654|   -5.494621|
|         140|   -5.885331|   -4.106662|   -4.087418|   -5.494936|
|         141|   -5.880723|   -4.105635|   -4.086245|   -5.495821|
|         142|   -5.877052|   -4.104491|   -4.085746|   -5.497581|
|         143|   -5.877955|   -4.104456|   -4.085457|   -5.499813|
|         144|   -5.880912|   -4.105724|   -4.085767|   -5.502238|
|         145|   -5.887192|   -4.108823|   -4.086471|   -5.504691|
|         146|   -5.894400|   -4.112633|   -4.087508|   -5.506940|
|         147|   -5.900530|   -4.116156|   -4.088570|   -5.508991|
|         148|   -5.906552|   -4.119567|   -4.089486|   -5.510915|
|         149|   -5.912444|   -4.122759|   -4.090378|   -5.512501|
|         150|   -5.917712|   -4.125746|   -4.091309|   -5.513554|
|         151|   -5.922868|   -4.128573|   -4.091823|   -5.513969|
|         152|   -5.925452|   -4.130843|   -4.091657|   -5.513828|
|         153|   -5.925584|   -4.132265|   -4.090966|   -5.513583|
|         154|   -5.924684|   -4.133177|   -4.090165|   -5.513620|
|         155|   -5.924038|   -4.133795|   -4.089839|   -5.514027|
|         156|   -5.924517|   -4.134326|   -4.090174|   -5.514698|
|         157|   -5.927815|   -4.135807|   -4.091035|   -5.515264|
|         158|   -5.933163|   -4.138038|   -4.092564|   -5.515471|
|         159|   -5.938917|   -4.141122|   -4.094577|   -5.515259|
|         160|   -5.944431|   -4.144567|   -4.096615|   -5.514732|
|         161|   -5.948831|   -4.147076|   -4.098290|   -5.513768|
|         162|   -5.951193|   -4.148615|   -4.099671|   -5.512221|
|         163|   -5.952472|   -4.149396|   -4.100467|   -5.510175|
|         164|   -5.953621|   -4.149584|   -4.100343|   -5.507303|
|         165|   -5.952299|   -4.148946|   -4.099304|   -5.503810|
|         166|   -5.949369|   -4.147290|   -4.097350|   -5.499905|
|         167|   -5.943836|   -4.144522|   -4.094713|   -5.495880|
|         168|   -5.937947|   -4.140741|   -4.091171|   -5.492162|
|         169|   -5.932905|   -4.136347|   -4.087295|   -5.488777|
|         170|   -5.929406|   -4.131698|   -4.083695|   -5.485652|
|         171|   -5.928684|   -4.127541|   -4.080569|   -5.482653|
|         172|   -5.931165|   -4.124601|   -4.077996|   -5.479457|
|         173|   -5.934329|   -4.122156|   -4.076125|   -5.476047|
|         174|   -5.937437|   -4.120058|   -4.074588|   -5.472380|
|         175|   -5.938875|   -4.117064|   -4.073125|   -5.468516|
|         176|   -5.939644|   -4.112869|   -4.071440|   -5.464627|
|         177|   -5.940238|   -4.108330|   -4.069491|   -5.460562|
|         178|   -5.940633|   -4.103272|   -4.067234|   -5.456394|
|         179|   -5.941507|   -4.097911|   -4.064611|   -5.452025|
|         180|   -5.941347|   -4.092390|   -4.061484|   -5.447428|
|         181|   -5.940415|   -4.086613|   -4.057575|   -5.442758|
|         182|   -5.938949|   -4.080664|   -4.053028|   -5.438080|
|         183|   -5.936861|   -4.074690|   -4.047992|   -5.433520|
|         184|   -5.934725|   -4.068600|   -4.042716|   -5.429299|
|         185|   -5.933658|   -4.062768|   -4.037493|   -5.425416|
|         186|   -5.934140|   -4.057678|   -4.032534|   -5.421790|
|         187|   -5.937316|   -4.053376|   -4.027879|   -5.418325|
|         188|   -5.942090|   -4.050189|   -4.023821|   -5.414837|
|         189|   -5.946900|   -4.047947|   -4.020287|   -5.411282|
|         190|   -5.951469|   -4.045884|   -4.017110|   -5.407774|
|         191|   -5.955417|   -4.044037|   -4.014303|   -5.404347|
|         192|   -5.958601|   -4.042382|   -4.011874|   -5.401070|
|         193|   -5.961293|   -4.040696|   -4.009712|   -5.397943|
|         194|   -5.963365|   -4.038914|   -4.007820|   -5.395011|
|         195|   -5.965491|   -4.037216|   -4.006298|   -5.392226|
|         196|   -5.966272|   -4.035484|   -4.005216|   -5.389571|
|         197|   -5.966512|   -4.033626|   -4.004306|   -5.387109|
|         198|   -5.966490|   -4.031827|   -4.003531|   -5.384806|
|         199|   -5.965764|   -4.030016|   -4.002755|   -5.382722|
|         200|   -5.964504|   -4.028047|   -4.001886|   -5.380956|
|         201|   -5.963435|   -4.026097|   -4.000953|   -5.379561|
|         202|   -5.962573|   -4.024181|   -4.000096|   -5.378565|
|         203|   -5.962404|   -4.022234|   -3.999533|   -5.377915|
|         204|   -5.963133|   -4.020500|   -3.999244|   -5.377607|
|         205|   -5.966136|   -4.019681|   -3.999144|   -5.377538|
|         206|   -5.969534|   -4.019321|   -3.999176|   -5.377700|
|         207|   -5.973278|   -4.019266|   -3.999367|   -5.378084|
|         208|   -5.977317|   -4.019606|   -3.999499|   -5.378696|
|         209|   -5.981834|   -4.020185|   -3.999652|   -5.379515|
|         210|   -5.985847|   -4.020685|   -3.999681|   -5.380528|
|         211|   -5.989502|   -4.020921|   -3.999715|   -5.381731|
|         212|   -5.993098|   -4.020924|   -3.999737|   -5.383119|
|         213|   -5.996413|   -4.020702|   -3.999888|   -5.384646|
|         214|   -5.999742|   -4.020235|   -4.000013|   -5.386322|
|         215|   -6.003080|   -4.019738|   -4.000061|   -5.388078|
|         216|   -6.006988|   -4.019167|   -4.000056|   -5.389914|
|         217|   -6.010703|   -4.018421|   -4.000050|   -5.391888|
|         218|   -6.014423|   -4.017481|   -4.000069|   -5.394009|
|         219|   -6.018828|   -4.016330|   -4.000162|   -5.396283|
|         220|   -6.022884|   -4.014890|   -4.000486|   -5.398750|
|         221|   -6.027856|   -4.013166|   -4.001070|   -5.401413|
|         222|   -6.033653|   -4.011309|   -4.002251|   -5.404234|
|         223|   -6.039916|   -4.009549|   -4.003943|   -5.407189|
|         224|   -6.046875|   -4.008033|   -4.006010|   -5.410240|
|         225|   -6.054184|   -4.006478|   -4.008530|   -5.413409|
|         226|   -6.062094|   -4.004951|   -4.011546|   -5.416681|
|         227|   -6.070410|   -4.003618|   -4.015049|   -5.420059|
|         228|   -6.078636|   -4.002511|   -4.018936|   -5.423522|
|         229|   -6.086857|   -4.001278|   -4.023038|   -5.427068|
|         230|   -6.095119|   -3.999858|   -4.027298|   -5.430689|
|         231|   -6.103018|   -3.998408|   -4.031718|   -5.434324|
|         232|   -6.110517|   -3.996847|   -4.036253|   -5.437970|
|         233|   -6.118345|   -3.995265|   -4.040824|   -5.441683|
|         234|   -6.127923|   -3.993987|   -4.045385|   -5.445420|
|         235|   -6.137656|   -3.992948|   -4.050198|   -5.449172|
|         236|   -6.146843|   -3.991988|   -4.055055|   -5.452911|
|         237|   -6.155251|   -3.990968|   -4.059926|   -5.456679|
|         238|   -6.163892|   -3.989914|   -4.064776|   -5.460517|
|         239|   -6.173191|   -3.989023|   -4.069672|   -5.464435|
|         240|   -6.182647|   -3.988250|   -4.074629|   -5.468446|
|         241|   -6.191110|   -3.987443|   -4.079546|   -5.472514|
|         242|   -6.199402|   -3.986688|   -4.084298|   -5.476620|
|         243|   -6.207833|   -3.985799|   -4.088869|   -5.480820|
|         244|   -6.214795|   -3.985251|   -4.093235|   -5.484956|
|         245|   -6.222027|   -3.984490|   -4.097340|   -5.489186|
|         246|   -6.226914|   -3.983922|   -4.101171|   -5.493320|
|         247|   -6.232128|   -3.983150|   -4.104768|   -5.497544|
|         248|   -6.235640|   -3.982590|   -4.107973|   -5.501630|
|         249|   -6.239221|   -3.981876|   -4.110723|   -5.505794|
|         250|   -6.242007|   -3.981113|   -4.113050|   -5.509822|
|         251|   -6.244805|   -3.980201|   -4.115148|   -5.513917|
|         252|   -6.247663|   -3.979342|   -4.117004|   -5.517930|
|         253|   -6.249917|   -3.978510|   -4.118661|   -5.521970|
|         254|   -6.253539|   -3.977634|   -4.120040|   -5.525979|
|         255|   -6.257142|   -3.976786|   -4.121175|   -5.529956|
|         256|   -6.261874|   -3.975838|   -4.122113|   -5.533887|
|         257|   -6.266601|   -3.974875|   -4.123086|   -5.537742|
|         258|   -6.271662|   -3.973788|   -4.124210|   -5.541529|
|         259|   -6.275780|   -3.972614|   -4.125489|   -5.545228|
|         260|   -6.279306|   -3.971207|   -4.126823|   -5.548815|
|         261|   -6.282011|   -3.969659|   -4.128283|   -5.552309|
|         262|   -6.283878|   -3.967843|   -4.129777|   -5.555680|
|         263|   -6.284906|   -3.965906|   -4.131359|   -5.558956|
|         264|   -6.283819|   -3.963929|   -4.132751|   -5.561989|
|         265|   -6.281617|   -3.961840|   -4.134082|   -5.564997|
|         266|   -6.279492|   -3.959826|   -4.135329|   -5.567907|
|         267|   -6.274516|   -3.957901|   -4.136258|   -5.570655|
|         268|   -6.270596|   -3.956081|   -4.136726|   -5.573457|
|         269|   -6.266153|   -3.954516|   -4.136832|   -5.576213|
|         270|   -6.261177|   -3.953263|   -4.136190|   -5.578913|
|         271|   -6.258799|   -3.952252|   -4.135244|   -5.581735|
|         272|   -6.255162|   -3.951527|   -4.134056|   -5.584429|
|         273|   -6.253794|   -3.950872|   -4.132641|   -5.587190|
|         274|   -6.253182|   -3.950560|   -4.131184|   -5.589877|
|         275|   -6.254963|   -3.950583|   -4.129788|   -5.592628|
|         276|   -6.257642|   -3.950992|   -4.128700|   -5.595271|
|         277|   -6.261675|   -3.951777|   -4.128036|   -5.597967|
|         278|   -6.266551|   -3.952885|   -4.127834|   -5.600501|
|         279|   -6.272687|   -3.954172|   -4.128244|   -5.603050|
|         280|   -6.277945|   -3.955593|   -4.129184|   -5.605520|
|         281|   -6.283145|   -3.957119|   -4.130701|   -5.607989|
|         282|   -6.288120|   -3.958883|   -4.132748|   -5.610528|
|         283|   -6.291710|   -3.960741|   -4.135263|   -5.613077|
|         284|   -6.293620|   -3.962534|   -4.138272|   -5.615651|
|         285|   -6.295034|   -3.964188|   -4.141667|   -5.618306|
|         286|   -6.294670|   -3.965744|   -4.145288|   -5.620975|
|         287|   -6.294172|   -3.967130|   -4.149202|   -5.623724|
|         288|   -6.291041|   -3.968300|   -4.153333|   -5.626304|
|         289|   -6.287380|   -3.969018|   -4.157498|   -5.629025|
|         290|   -6.282342|   -3.969299|   -4.161213|   -5.631491|
|         291|   -6.276479|   -3.968928|   -4.163984|   -5.633916|
|         292|   -6.268131|   -3.968090|   -4.165216|   -5.636238|
|         293|   -6.259216|   -3.966643|   -4.164686|   -5.638391|
|         294|   -6.250629|   -3.964749|   -4.162195|   -5.640562|
|         295|   -6.242136|   -3.962495|   -4.157484|   -5.642590|
|         296|   -6.233906|   -3.960134|   -4.150800|   -5.644359|
|         297|   -6.227483|   -3.957751|   -4.142374|   -5.645969|
|         298|   -6.222494|   -3.955620|   -4.132549|   -5.647279|
|         299|   -6.218194|   -3.953829|   -4.121748|   -5.648190|
|         300|   -6.213967|   -3.952457|   -4.110353|   -5.648727|
|         301|   -6.209649|   -3.951584|   -4.098626|   -5.648899|
|         302|   -6.205419|   -3.951279|   -4.086750|   -5.648762|
|         303|   -6.200863|   -3.951519|   -4.074943|   -5.648365|
|         304|   -6.195982|   -3.952322|   -4.063713|   -5.647757|
|         305|   -6.190686|   -3.953871|   -4.053572|   -5.647031|
|         306|   -6.185194|   -3.956271|   -4.044803|   -5.646267|
|         307|   -6.179421|   -3.959489|   -4.037614|   -5.645577|
|         308|   -6.173399|   -3.963439|   -4.032001|   -5.644982|
|         309|   -6.166702|   -3.968017|   -4.027933|   -5.644531|
|         310|   -6.159792|   -3.973125|   -4.025244|   -5.644254|
|         311|   -6.152713|   -3.978709|   -4.023805|   -5.644092|
|         312|   -6.144753|   -3.984671|   -4.023464|   -5.644135|
|         313|   -6.136689|   -3.991048|   -4.024064|   -5.644385|
|         314|   -6.127800|   -3.997870|   -4.025611|   -5.644974|
|         315|   -6.118735|   -4.005264|   -4.028197|   -5.646089|
|         316|   -6.109605|   -4.013188|   -4.032014|   -5.647888|
|         317|   -6.100572|   -4.021620|   -4.037095|   -5.650554|
|         318|   -6.092539|   -4.030533|   -4.043363|   -5.654166|
|         319|   -6.086176|   -4.040099|   -4.050814|   -5.658759|
|         320|   -6.081167|   -4.050297|   -4.059441|   -5.664225|
|         321|   -6.077091|   -4.060931|   -4.069183|   -5.670535|
|         322|   -6.074458|   -4.071835|   -4.079276|   -5.677704|
|         323|   -6.073529|   -4.082680|   -4.089326|   -5.685441|
|         324|   -6.073372|   -4.093227|   -4.099468|   -5.693512|
|         325|   -6.072778|   -4.103433|   -4.109758|   -5.701766|
|         326|   -6.071464|   -4.113196|   -4.120018|   -5.710088|
|         327|   -6.069617|   -4.122381|   -4.129993|   -5.718373|
|         328|   -6.067105|   -4.130953|   -4.139489|   -5.726473|
|         329|   -6.063965|   -4.138823|   -4.148338|   -5.734241|
|         330|   -6.060006|   -4.145822|   -4.156386|   -5.741678|
|         331|   -6.055344|   -4.151859|   -4.163482|   -5.748800|
|         332|   -6.050022|   -4.156992|   -4.169504|   -5.755628|
|         333|   -6.044159|   -4.161413|   -4.174391|   -5.762205|
|         334|   -6.037833|   -4.165323|   -4.178132|   -5.768572|
|         335|   -6.031646|   -4.168880|   -4.180769|   -5.774880|
|         336|   -6.025921|   -4.172314|   -4.182433|   -5.781147|
|         337|   -6.020649|   -4.175773|   -4.183200|   -5.787268|
|         338|   -6.015588|   -4.179335|   -4.183208|   -5.793289|
|         339|   -6.011034|   -4.183071|   -4.182641|   -5.799271|
|         340|   -6.007283|   -4.187142|   -4.181718|   -5.805213|
|         341|   -6.004240|   -4.191581|   -4.180628|   -5.810955|
|         342|   -6.002017|   -4.196205|   -4.177285|   -5.816409|
|         343|   -6.000540|   -4.200863|   -4.173826|   -5.821300|
|         344|   -5.999529|   -4.205315|   -4.171023|   -5.824964|
|         345|   -5.998732|   -4.209318|   -4.169013|   -5.827120|
|         346|   -5.997746|   -4.212822|   -4.167627|   -5.827923|
|         347|   -5.996427|   -4.215872|   -4.166632|   -5.827613|
|         348|   -5.994775|   -4.218615|   -4.165865|   -5.827104|
|         349|   -5.992917|   -4.221320|   -4.165163|   -5.825932|
|         350|   -5.990938|   -4.224247|   -4.164365|   -5.824090|
|         351|   -5.988815|   -4.227509|   -4.163341|   -5.821303|
|         352|   -5.986543|   -4.231097|   -4.162037|   -5.817631|
|         353|   -5.984178|   -4.234861|   -4.160443|   -5.813126|
|         354|   -5.981859|   -4.238646|   -4.158621|   -5.808028|
|         355|   -5.979688|   -4.242462|   -4.156684|   -5.802422|
|         356|   -5.977730|   -4.246318|   -4.154796|   -5.796415|
|         357|   -5.975943|   -4.250168|   -4.153088|   -5.790116|
|         358|   -5.974329|   -4.253802|   -4.151832|   -5.783688|
|         359|   -5.972757|   -4.257082|   -4.151033|   -5.777270|
|         360|   -5.971193|   -4.259882|   -4.150671|   -5.770966|
|         361|   -5.969534|   -4.262063|   -4.150606|   -5.764828|
|         362|   -5.967740|   -4.263634|   -4.150694|   -5.758893|
|         363|   -5.965770|   -4.264696|   -4.150836|   -5.753184|
|         364|   -5.963569|   -4.265265|   -4.150938|   -5.747766|
|         365|   -5.961120|   -4.265350|   -4.150926|   -5.742718|
|         366|   -5.958483|   -4.265055|   -4.150771|   -5.738146|
|         367|   -5.955720|   -4.264522|   -4.150492|   -5.734197|
|         368|   -5.953098|   -4.263895|   -4.150098|   -5.731136|
|         369|   -5.950777|   -4.263280|   -4.149595|   -5.729097|
|         370|   -5.948928|   -4.262814|   -4.149131|   -5.728063|
|         371|   -5.947529|   -4.262490|   -4.148690|   -5.728013|
|         372|   -5.946733|   -4.262369|   -4.148349|   -5.728905|
|         373|   -5.946457|   -4.262561|   -4.148064|   -5.730602|
|         374|   -5.946698|   -4.263108|   -4.147900|   -5.732994|
|         375|   -5.947420|   -4.263996|   -4.147953|   -5.735945|
|         376|   -5.948543|   -4.265154|   -4.148264|   -5.739359|
|         377|   -5.950041|   -4.266533|   -4.148904|   -5.743145|
|         378|   -5.952000|   -4.268142|   -4.149950|   -5.747178|
|         379|   -5.954167|   -4.269828|   -4.151393|   -5.751334|
|         380|   -5.956571|   -4.271401|   -4.153201|   -5.755484|
|         381|   -5.959120|   -4.272722|   -4.155377|   -5.759648|
|         382|   -5.961763|   -4.273687|   -4.157930|   -5.763822|
|         383|   -5.964664|   -4.274345|   -4.160789|   -5.767755|
|         384|   -5.967360|   -4.274510|   -4.164031|   -5.771689|
|         385|   -5.970362|   -4.274260|   -4.167558|   -5.775451|
|         386|   -5.973307|   -4.273513|   -4.171345|   -5.779019|
|         387|   -5.976339|   -4.272197|   -4.175332|   -5.782586|
|         388|   -5.979394|   -4.270388|   -4.179447|   -5.785992|
|         389|   -5.982477|   -4.268109|   -4.183626|   -5.789242|
|         390|   -5.985716|   -4.265435|   -4.187827|   -5.792296|
|         391|   -5.989093|   -4.262428|   -4.192065|   -5.795084|
|         392|   -5.992439|   -4.259196|   -4.196210|   -5.797516|
|         393|   -5.995799|   -4.255893|   -4.200296|   -5.799445|
|         394|   -5.999199|   -4.252669|   -4.204372|   -5.800785|
|         395|   -6.002648|   -4.249683|   -4.208487|   -5.801434|
|         396|   -6.006086|   -4.247052|   -4.212657|   -5.801361|
|         397|   -6.009400|   -4.244890|   -4.216767|   -5.800517|
|         398|   -6.012591|   -4.243203|   -4.220066|   -5.798923|
|         399|   -6.015748|   -4.241830|   -4.218723|   -5.796852|
|         400|   -6.018458|   -4.240825|   -4.216247|   -5.794359|
|         401|   -6.021415|   -4.239978|   -4.214557|   -5.791634|
|         402|   -6.024583|   -4.239288|   -4.213719|   -5.788811|
|         403|   -6.027887|   -4.238583|   -4.213365|   -5.785817|
|         404|   -6.030941|   -4.237523|   -4.213354|   -5.782794|
|         405|   -6.034100|   -4.235949|   -4.214232|   -5.779705|
|         406|   -6.036964|   -4.234006|   -4.216097|   -5.776681|
|         407|   -6.039856|   -4.231919|   -4.218384|   -5.773522|
|         408|   -6.042767|   -4.229827|   -4.220733|   -5.770141|
|         409|   -6.045512|   -4.227764|   -4.223290|   -5.766534|
|         410|   -6.047898|   -4.225506|   -4.224343|   -5.763067|
|         411|   -6.050315|   -4.223294|   -4.225616|   -5.759138|
|         412|   -6.052899|   -4.221286|   -4.228522|   -5.755053|
|         413|   -6.055513|   -4.219500|   -4.233014|   -5.750470|
|         414|   -6.058054|   -4.217739|   -4.238471|   -5.745904|
|         415|   -6.060154|   -4.215679|   -4.243494|   -5.741398|
|         416|   -6.062881|   -4.213228|   -4.248242|   -5.736596|
|         417|   -6.065392|   -4.210480|   -4.252753|   -5.731220|
|         418|   -6.067467|   -4.207244|   -4.256868|   -5.725630|
|         419|   -6.069033|   -4.203633|   -4.260636|   -5.719628|
|         420|   -6.070094|   -4.199673|   -4.264176|   -5.713560|
|         421|   -6.070812|   -4.195361|   -4.267549|   -5.707128|
|         422|   -6.071042|   -4.190740|   -4.270690|   -5.700366|
|         423|   -6.070284|   -4.185803|   -4.273540|   -5.693332|
|         424|   -6.068543|   -4.180461|   -4.275955|   -5.686082|
|         425|   -6.065962|   -4.174764|   -4.277838|   -5.678858|
|         426|   -6.062477|   -4.168645|   -4.279109|   -5.671816|
|         427|   -6.058699|   -4.162134|   -4.279582|   -5.664895|
|         428|   -6.054246|   -4.155155|   -4.279128|   -5.658529|
|         429|   -6.049675|   -4.147711|   -4.277615|   -5.652467|
|         430|   -6.044936|   -4.139835|   -4.274892|   -5.646865|
|         431|   -6.040423|   -4.131647|   -4.270934|   -5.641590|
|         432|   -6.035903|   -4.123212|   -4.265708|   -5.636633|
|         433|   -6.031927|   -4.114547|   -4.258773|   -5.631780|
|         434|   -6.028741|   -4.105812|   -4.250441|   -5.626622|
|         435|   -6.025766|   -4.097139|   -4.241185|   -5.621026|
|         436|   -6.022628|   -4.088669|   -4.231084|   -5.614926|
|         437|   -6.019228|   -4.080621|   -4.220215|   -5.608365|
|         438|   -6.015068|   -4.073039|   -4.208703|   -5.601523|
|         439|   -6.010489|   -4.065872|   -4.196677|   -5.594481|
|         440|   -6.005690|   -4.059189|   -4.184472|   -5.587345|
|         441|   -6.000729|   -4.053205|   -4.172522|   -5.580534|
|         442|   -5.996059|   -4.048059|   -4.161223|   -5.574268|
|         443|   -5.991631|   -4.043460|   -4.150947|   -5.568911|
|         444|   -5.988002|   -4.039199|   -4.141476|   -5.564567|
|         445|   -5.985245|   -4.035109|   -4.132517|   -5.561560|
|         446|   -5.984688|   -4.031301|   -4.123960|   -5.559825|
|         447|   -5.985566|   -4.027999|   -4.116233|   -5.559269|
|         448|   -5.987633|   -4.025248|   -4.109452|   -5.559826|
|         449|   -5.990416|   -4.022731|   -4.103581|   -5.561334|
|         450|   -5.993583|   -4.019999|   -4.098484|   -5.563469|
|         451|   -5.996779|   -4.016915|   -4.094501|   -5.565935|
|         452|   -5.999292|   -4.013918|   -4.091689|   -5.568601|
|         453|   -6.001217|   -4.011868|   -4.089622|   -5.571523|
|         454|   -6.002342|   -4.010336|   -4.088456|   -5.574942|
|         455|   -6.003653|   -4.008842|   -4.088700|   -5.578875|
|         456|   -6.007656|   -4.007478|   -4.091564|   -5.583484|
|         457|   -6.016062|   -4.006885|   -4.097591|   -5.588896|
|         458|   -6.032906|   -4.007066|   -4.105858|   -5.594574|
|         459|   -6.055321|   -4.008483|   -4.116712|   -5.600058|
|         460|   -6.080443|   -4.011377|   -4.129547|   -5.604951|
|         461|   -6.106358|   -4.015368|   -4.142844|   -5.609015|
|         462|   -6.131314|   -4.019044|   -4.154854|   -5.612016|
|         463|   -6.151398|   -4.021727|   -4.165052|   -5.614019|
|         464|   -6.166135|   -4.023465|   -4.173647|   -5.615288|
|         465|   -6.176293|   -4.024532|   -4.180764|   -5.615847|
|         466|   -6.184188|   -4.025101|   -4.186723|   -5.615665|
|         467|   -6.190083|   -4.025466|   -4.192077|   -5.615324|
|         468|   -6.195252|   -4.025864|   -4.197271|   -5.614318|
|         469|   -6.198977|   -4.026355|   -4.202681|   -5.612907|
|         470|   -6.202111|   -4.027063|   -4.208471|   -5.611045|
|         471|   -6.206921|   -4.027852|   -4.214820|   -5.608814|
|         472|   -6.210903|   -4.028616|   -4.221318|   -5.606422|
|         473|   -6.213741|   -4.029277|   -4.227494|   -5.604044|
|         474|   -6.215856|   -4.029717|   -4.233019|   -5.601815|
|         475|   -6.216310|   -4.029895|   -4.237700|   -5.599543|
|         476|   -6.215361|   -4.029839|   -4.241579|   -5.596689|
|         477|   -6.211402|   -4.029560|   -4.244589|   -5.594078|
|         478|   -6.206088|   -4.029051|   -4.246484|   -5.591224|
|         479|   -6.195386|   -4.028239|   -4.246947|   -5.588447|
|         480|   -6.187752|   -4.027098|   -4.246219|   -5.585603|
|         481|   -6.177079|   -4.025531|   -4.244573|   -5.582741|
|         482|   -6.165547|   -4.023680|   -4.241761|   -5.580289|
|         483|   -6.154858|   -4.021762|   -4.238355|   -5.578463|
|         484|   -6.144847|   -4.020135|   -4.234645|   -5.576782|
|         485|   -6.136873|   -4.018979|   -4.230113|   -5.575848|
|         486|   -6.130158|   -4.018221|   -4.227138|   -5.575947|
|         487|   -6.123051|   -4.017217|   -4.227464|   -5.576672|
|         488|   -6.123202|   -4.016163|   -4.229302|   -5.578005|
|         489|   -6.128213|   -4.016457|   -4.232508|   -5.579726|
|         490|   -6.135909|   -4.018987|   -4.236529|   -5.581702|
|         491|   -6.144059|   -4.022183|   -4.240523|   -5.583920|
|         492|   -6.152603|   -4.025155|   -4.243642|   -5.586179|
|         493|   -6.158452|   -4.028460|   -4.246131|   -5.588322|
|         494|   -6.162034|   -4.032203|   -4.247759|   -5.590341|
|         495|   -6.162716|   -4.035934|   -4.248221|   -5.592444|
|         496|   -6.161363|   -4.039355|   -4.247913|   -5.594865|
|         497|   -6.159986|   -4.042550|   -4.246998|   -5.597694|
|         498|   -6.159001|   -4.045699|   -4.245712|   -5.600767|
|         499|   -6.157818|   -4.048741|   -4.244442|   -5.603781|
|         500|   -6.156951|   -4.051553|   -4.241481|   -5.606463|
|         501|   -6.157906|   -4.054230|   -4.237931|   -5.608518|
|         502|   -6.158145|   -4.056317|   -4.233966|   -5.610140|
|         503|   -6.156874|   -4.057704|   -4.229479|   -5.611621|
|         504|   -6.154804|   -4.058594|   -4.224652|   -5.613216|
|         505|   -6.153085|   -4.059386|   -4.219587|   -5.615057|
|         506|   -6.152312|   -4.060477|   -4.214806|   -5.617141|
|         507|   -6.152115|   -4.062123|   -4.210576|   -5.619416|
|         508|   -6.151783|   -4.064545|   -4.206847|   -5.621788|
|         509|   -6.151039|   -4.067895|   -4.203417|   -5.624135|
|         510|   -6.149768|   -4.072158|   -4.200055|   -5.626376|
|         511|   -6.147823|   -4.077150|   -4.196602|   -5.628486|
|         512|   -6.145281|   -4.082612|   -4.192966|   -5.630467|
|         513|   -6.142376|   -4.088265|   -4.189049|   -5.632336|
|         514|   -6.139348|   -4.093863|   -4.184865|   -5.634121|
|         515|   -6.136501|   -4.099216|   -4.180520|   -5.635838|
|         516|   -6.134013|   -4.104173|   -4.176158|   -5.637499|
|         517|   -6.132030|   -4.108646|   -4.171936|   -5.639112|
|         518|   -6.130557|   -4.112590|   -4.167944|   -5.640684|
|         519|   -6.129514|   -4.116004|   -4.164244|   -5.642224|
|         520|   -6.128724|   -4.118885|   -4.160921|   -5.643743|
|         521|   -6.127964|   -4.121228|   -4.158027|   -5.645247|
|         522|   -6.126998|   -4.123023|   -4.155565|   -5.646747|
|         523|   -6.125643|   -4.124277|   -4.153557|   -5.648248|
|         524|   -6.123781|   -4.125058|   -4.152066|   -5.649756|
|         525|   -6.121360|   -4.125492|   -4.151133|   -5.651276|
|         526|   -6.118480|   -4.125720|   -4.150771|   -5.652812|
|         527|   -6.115233|   -4.125825|   -4.150876|   -5.654361|
|         528|   -6.111854|   -4.125822|   -4.151261|   -5.655924|
|         529|   -6.108694|   -4.125654|   -4.151842|   -5.657512|
|         530|   -6.106320|   -4.125303|   -4.152445|   -5.659136|
|         531|   -6.105244|   -4.125348|   -4.152949|   -5.660787|
|         532|   -6.105868|   -4.126836|   -4.153297|   -5.662466|
|         533|   -6.108229|   -4.130918|   -4.153285|   -5.664164|
|         534|   -6.111541|   -4.137139|   -4.153058|   -5.665858|
|         535|   -6.114831|   -4.144500|   -4.153402|   -5.667566|
|         536|   -6.117585|   -4.152465|   -4.154595|   -5.669303|
|         537|   -6.119702|   -4.160153|   -4.156429|   -5.671061|
|         538|   -6.121339|   -4.166576|   -4.158567|   -5.672823|
|         539|   -6.122662|   -4.171386|   -4.161046|   -5.674575|
|         540|   -6.123757|   -4.174992|   -4.163407|   -5.676311|
|         541|   -6.124711|   -4.178003|   -4.165255|   -5.678025|
|         542|   -6.125540|   -4.180827|   -4.166484|   -5.679702|
|         543|   -6.126302|   -4.183633|   -4.167213|   -5.681329|
|         544|   -6.126930|   -4.186470|   -4.167383|   -5.682890|
|         545|   -6.127420|   -4.189389|   -4.167096|   -5.684375|
|         546|   -6.127846|   -4.192361|   -4.166618|   -5.685779|
|         547|   -6.128214|   -4.195365|   -4.166051|   -5.687101|
|         548|   -6.128505|   -4.198394|   -4.165349|   -5.688346|
|         549|   -6.128754|   -4.201422|   -4.164564|   -5.689524|
|         550|   -6.129055|   -4.204386|   -4.163846|   -5.690648|
|         551|   -6.129323|   -4.207219|   -4.162987|   -5.691734|
|         552|   -6.129613|   -4.209862|   -4.162025|   -5.692801|
|         553|   -6.129942|   -4.212264|   -4.160962|   -5.693867|
|         554|   -6.130320|   -4.214386|   -4.159834|   -5.694950|
|         555|   -6.130793|   -4.216199|   -4.158757|   -5.696066|
|         556|   -6.131303|   -4.217684|   -4.157642|   -5.697227|
|         557|   -6.131866|   -4.218858|   -4.156537|   -5.698441|
|         558|   -6.132540|   -4.219720|   -4.155579|   -5.699713|
|         559|   -6.133298|   -4.220267|   -4.154688|   -5.701042|
|         560|   -6.134119|   -4.220474|   -4.153778|   -5.702424|
|         561|   -6.135009|   -4.220324|   -4.152855|   -5.703852|
|         562|   -6.136026|   -4.219821|   -4.152091|   -5.705318|
|         563|   -6.137134|   -4.218998|   -4.151456|   -5.706816|
|         564|   -6.138315|   -4.217934|   -4.150923|   -5.708341|
|         565|   -6.139575|   -4.216691|   -4.150514|   -5.709887|
|         566|   -6.141006|   -4.215285|   -4.150386|   -5.711457|
|         567|   -6.142498|   -4.213688|   -4.150300|   -5.713054|
|         568|   -6.144072|   -4.211866|   -4.150275|   -5.714684|
|         569|   -6.145743|   -4.209798|   -4.150307|   -5.716350|
|         570|   -6.147548|   -4.207482|   -4.150483|   -5.718064|
|         571|   -6.149396|   -4.204945|   -4.150637|   -5.719833|
|         572|   -6.151382|   -4.202225|   -4.150948|   -5.721664|
|         573|   -6.153442|   -4.199343|   -4.151335|   -5.723565|
|         574|   -6.155626|   -4.196327|   -4.151894|   -5.725541|
|         575|   -6.157910|   -4.193187|   -4.152571|   -5.727596|
|         576|   -6.160311|   -4.189908|   -4.153363|   -5.729734|
|         577|   -6.162843|   -4.186471|   -4.154259|   -5.731958|
|         578|   -6.165453|   -4.182882|   -4.155146|   -5.734269|
|         579|   -6.168253|   -4.179172|   -4.156247|   -5.736669|
|         580|   -6.171134|   -4.175389|   -4.157389|   -5.739157|
|         581|   -6.174161|   -4.171583|   -4.158725|   -5.741731|
|         582|   -6.177303|   -4.167790|   -4.160183|   -5.744392|
|         583|   -6.180621|   -4.163999|   -4.161848|   -5.747137|
|         584|   -6.184041|   -4.160210|   -4.163556|   -5.749964|
|         585|   -6.187632|   -4.156403|   -4.165414|   -5.752870|
|         586|   -6.191309|   -4.152584|   -4.167259|   -5.755854|
|         587|   -6.195142|   -4.148759|   -4.169151|   -5.758911|
|         588|   -6.199049|   -4.144952|   -4.171002|   -5.762040|
|         589|   -6.203072|   -4.141192|   -4.172897|   -5.765238|
|         590|   -6.207170|   -4.137509|   -4.174787|   -5.768503|
|         591|   -6.211401|   -4.133912|   -4.176804|   -5.771832|
|         592|   -6.215707|   -4.130416|   -4.178888|   -5.775222|
|         593|   -6.220117|   -4.127032|   -4.181131|   -5.778670|
|         594|   -6.224555|   -4.123748|   -4.183459|   -5.782176|
|         595|   -6.229154|   -4.120553|   -4.186039|   -5.785735|
|         596|   -6.233782|   -4.117429|   -4.188197|   -5.789342|
|         597|   -6.238482|   -4.114369|   -4.190207|   -5.792990|
|         598|   -6.243229|   -4.111392|   -4.192265|   -5.796677|
|         599|   -6.248141|   -4.108531|   -4.194576|   -5.800401|
|         600|   -6.253240|   -4.105786|   -4.197180|   -5.804161|
|         601|   -6.258486|   -4.103136|   -4.200003|   -5.807957|
|         602|   -6.264027|   -4.100546|   -4.203238|   -5.811786|
|         603|   -6.269718|   -4.097991|   -4.206620|   -5.815650|
|         604|   -6.275689|   -4.095462|   -4.210305|   -5.819547|
|         605|   -6.281894|   -4.092970|   -4.214202|   -5.823478|
|         606|   -6.288373|   -4.090528|   -4.218366|   -5.827444|
|         607|   -6.295229|   -4.088152|   -4.222864|   -5.831444|
|         608|   -6.302374|   -4.085829|   -4.227551|   -5.835480|
|         609|   -6.309933|   -4.083566|   -4.232489|   -5.839551|
|         610|   -6.317935|   -4.081368|   -4.237710|   -5.843653|
|         611|   -6.326317|   -4.079251|   -4.243168|   -5.847791|
|         612|   -6.335231|   -4.077242|   -4.249059|   -5.851958|
|         613|   -6.344570|   -4.075334|   -4.255292|   -5.856160|
|         614|   -6.354467|   -4.073522|   -4.261995|   -5.860393|
|         615|   -6.364852|   -4.071804|   -4.269046|   -5.864658|
|         616|   -6.375692|   -4.070174|   -4.276394|   -5.868959|
|         617|   -6.387116|   -4.068650|   -4.284134|   -5.873296|
|         618|   -6.399014|   -4.067234|   -4.292141|   -5.877670|
|         619|   -6.411332|   -4.065936|   -4.300366|   -5.882081|
|         620|   -6.424123|   -4.064763|   -4.308880|   -5.886532|
|         621|   -6.437276|   -4.063731|   -4.317544|   -5.891025|
|         622|   -6.450770|   -4.062851|   -4.326328|   -5.895561|
|         623|   -6.464456|   -4.062125|   -4.335079|   -5.900145|
|         624|   -6.478313|   -4.061549|   -4.343748|   -5.904777|
|         625|   -6.492164|   -4.061102|   -4.352225|   -5.909462|
|         626|   -6.505883|   -4.060764|   -4.360413|   -5.914201|
|         627|   -6.519318|   -4.060516|   -4.368071|   -5.918999|
|         628|   -6.532302|   -4.060358|   -4.375050|   -5.923855|
|         629|   -6.544664|   -4.060310|   -4.381225|   -5.928767|
|         630|   -6.556251|   -4.060408|   -4.386632|   -5.933736|
|         631|   -6.566824|   -4.060680|   -4.391372|   -5.938756|
|         632|   -6.576278|   -4.061124|   -4.395554|   -5.943830|
|         633|   -6.584449|   -4.061726|   -4.399235|   -5.948947|
|         634|   -6.591205|   -4.062454|   -4.402420|   -5.954112|
|         635|   -6.596453|   -4.063276|   -4.405025|   -5.959317|
|         636|   -6.600161|   -4.064173|   -4.407038|   -5.964562|
|         637|   -6.602361|   -4.065145|   -4.408413|   -5.969836|
|         638|   -6.603097|   -4.066190|   -4.409261|   -5.975138|
|         639|   -6.602505|   -4.067321|   -4.409628|   -5.980455|
|         640|   -6.600717|   -4.068540|   -4.409618|   -5.985783|
|         641|   -6.597871|   -4.069846|   -4.409287|   -5.991114|
|         642|   -6.594159|   -4.071230|   -4.408627|   -5.996450|
|         643|   -6.589705|   -4.072673|   -4.407689|   -6.001783|
|         644|   -6.584680|   -4.074151|   -4.406476|   -6.007117|
|         645|   -6.579241|   -4.075638|   -4.405052|   -6.012447|
|         646|   -6.573533|   -4.077118|   -4.403382|   -6.017781|
|         647|   -6.567643|   -4.078567|   -4.401403|   -6.023114|
|         648|   -6.561723|   -4.079984|   -4.399018|   -6.028462|
|         649|   -6.555820|   -4.081396|   -4.396284|   -6.033814|
|         650|   -6.550003|   -4.082838|   -4.393350|   -6.039175|
|         651|   -6.544186|   -4.084345|   -4.390376|   -6.044550|
|         652|   -6.538500|   -4.085945|   -4.387518|   -6.049933|
|         653|   -6.532791|   -4.087637|   -4.384820|   -6.055332|
|         654|   -6.527202|   -4.089426|   -4.382341|   -6.060743|
|         655|   -6.521656|   -4.091293|   -4.380095|   -6.066162|
|         656|   -6.516129|   -4.093223|   -4.378021|   -6.071578|
|         657|   -6.510596|   -4.095213|   -4.376083|   -6.076976|
|         658|   -6.504955|   -4.097255|   -4.374152|   -6.082354|
|         659|   -6.499288|   -4.099365|   -4.372294|   -6.087698|
|         660|   -6.493478|   -4.101556|   -4.370420|   -6.093001|
|         661|   -6.487484|   -4.103828|   -4.368572|   -6.098267|
|         662|   -6.481382|   -4.106179|   -4.366795|   -6.103481|
|         663|   -6.475036|   -4.108594|   -4.365016|   -6.108646|
|         664|   -6.468480|   -4.111067|   -4.363234|   -6.113763|
|         665|   -6.461683|   -4.113590|   -4.361406|   -6.118840|
|         666|   -6.454627|   -4.116160|   -4.359469|   -6.123895|
|         667|   -6.447425|   -4.118787|   -4.357485|   -6.128937|
|         668|   -6.440058|   -4.121497|   -4.355455|   -6.133977|
|         669|   -6.432543|   -4.124313|   -4.353395|   -6.139024|
|         670|   -6.424832|   -4.127261|   -4.351309|   -6.144085|
|         671|   -6.417009|   -4.130370|   -4.349260|   -6.149164|
|         672|   -6.409060|   -4.133656|   -4.347289|   -6.154265|
|         673|   -6.401024|   -4.137135|   -4.345469|   -6.159383|
|         674|   -6.392935|   -4.140822|   -4.343867|   -6.164508|
|         675|   -6.384779|   -4.144703|   -4.342521|   -6.169622|
|         676|   -6.376581|   -4.148759|   -4.341463|   -6.174705|
|         677|   -6.368367|   -4.152950|   -4.340722|   -6.179733|
|         678|   -6.360152|   -4.157234|   -4.340234|   -6.184675|
|         679|   -6.351944|   -4.161568|   -4.339950|   -6.189503|
|         680|   -6.343770|   -4.165931|   -4.339858|   -6.194188|
|         681|   -6.335644|   -4.170307|   -4.339903|   -6.198695|
|         682|   -6.327576|   -4.174673|   -4.340071|   -6.202994|
|         683|   -6.319583|   -4.179012|   -4.340339|   -6.207051|
|         684|   -6.311682|   -4.183305|   -4.340708|   -6.210833|
|         685|   -6.303884|   -4.187537|   -4.341168|   -6.214310|
|         686|   -6.296192|   -4.191710|   -4.341711|   -6.217446|
|         687|   -6.288617|   -4.195827|   -4.342358|   -6.220200|
|         688|   -6.281170|   -4.199897|   -4.343127|   -6.222539|
|         689|   -6.273865|   -4.203933|   -4.344071|   -6.224422|
|         690|   -6.266711|   -4.207936|   -4.345233|   -6.225810|
|         691|   -6.259723|   -4.211907|   -4.346643|   -6.226664|
|         692|   -6.252926|   -4.215837|   -4.348318|   -6.226935|
|         693|   -6.246321|   -4.219727|   -4.350270|   -6.226565|
|         694|   -6.239951|   -4.223556|   -4.352139|   -6.225512|
|         695|   -6.233712|   -4.227296|   -4.354036|   -6.223698|
|         696|   -6.227608|   -4.230870|   -4.356009|   -6.221049|
|         697|   -6.221643|   -4.234198|   -4.358015|   -6.217490|
|         698|   -6.215793|   -4.237209|   -4.359998|   -6.212954|
|         699|   -6.210031|   -4.239880|   -4.361941|   -6.207391|
|         700|   -6.204361|   -4.242217|   -4.363645|   -6.200772|
|         701|   -6.198690|   -4.244242|   -4.365356|   -6.193041|
|         702|   -6.193010|   -4.245996|   -4.367182|   -6.184180|
|         703|   -6.187284|   -4.247525|   -4.369219|   -6.174215|
|         704|   -6.181542|   -4.248897|   -4.370907|   -6.163315|
|         705|   -6.175637|   -4.250248|   -4.372297|   -6.151675|
|         706|   -6.169563|   -4.251750|   -4.373746|   -6.139543|
|         707|   -6.163391|   -4.253588|   -4.375488|   -6.127214|
|         708|   -6.157142|   -4.255959|   -4.377695|   -6.115010|
|         709|   -6.151146|   -4.258924|   -4.376042|   -6.103993|
|         710|   -6.144737|   -4.262667|   -4.373251|   -6.094109|
|         711|   -6.138373|   -4.267056|   -4.370565|   -6.085374|
|         712|   -6.132124|   -4.272005|   -4.368360|   -6.077751|
|         713|   -6.126130|   -4.277410|   -4.366732|   -6.071225|
|         714|   -6.120550|   -4.283138|   -4.365752|   -6.065664|
|         715|   -6.115248|   -4.289024|   -4.363852|   -6.061119|
|         716|   -6.110255|   -4.294962|   -4.359777|   -6.057613|
|         717|   -6.105435|   -4.300920|   -4.355388|   -6.054572|
|         718|   -6.100831|   -4.306739|   -4.351243|   -6.051958|
|         719|   -6.096811|   -4.312473|   -4.347448|   -6.049289|
|         720|   -6.092740|   -4.318014|   -4.343986|   -6.046714|
|         721|   -6.089356|   -4.323524|   -4.340670|   -6.043966|
|         722|   -6.085836|   -4.328894|   -4.337638|   -6.041196|
|         723|   -6.082905|   -4.334326|   -4.334677|   -6.038282|
|         724|   -6.079978|   -4.339756|   -4.331933|   -6.035283|
|         725|   -6.077405|   -4.345283|   -4.329259|   -6.032173|
|         726|   -6.074953|   -4.350884|   -4.326642|   -6.029025|
|         727|   -6.072646|   -4.356570|   -4.324018|   -6.025885|
|         728|   -6.070468|   -4.362338|   -4.321418|   -6.022777|
|         729|   -6.068425|   -4.368197|   -4.318852|   -6.019727|
|         730|   -6.066459|   -4.374138|   -4.316301|   -6.016740|
|         731|   -6.064636|   -4.380169|   -4.313783|   -6.013771|
|         732|   -6.062983|   -4.386251|   -4.311325|   -6.010961|
|         733|   -6.061402|   -4.392315|   -4.308914|   -6.008346|
|         734|   -6.059920|   -4.398262|   -4.306532|   -6.005911|
|         735|   -6.058544|   -4.404077|   -4.304166|   -6.003693|
|         736|   -6.057230|   -4.409661|   -4.301780|   -6.001691|
|         737|   -6.055977|   -4.414943|   -4.299404|   -5.999928|
|         738|   -6.054802|   -4.419880|   -4.297091|   -5.998318|
|         739|   -6.053775|   -4.424408|   -4.294857|   -5.996855|
|         740|   -6.052788|   -4.428487|   -4.292707|   -5.995683|
|         741|   -6.051963|   -4.432070|   -4.290679|   -5.994961|
|         742|   -6.051203|   -4.435130|   -4.288782|   -5.994263|
|         743|   -6.050736|   -4.437609|   -4.287048|   -5.993588|
|         744|   -6.050282|   -4.439486|   -4.285471|   -5.992866|
|         745|   -6.050035|   -4.440727|   -4.284048|   -5.992051|
|         746|   -6.049833|   -4.441482|   -4.282829|   -5.991243|
|         747|   -6.049765|   -4.441843|   -4.281821|   -5.990321|
|         748|   -6.049751|   -4.441855|   -4.280999|   -5.989583|
|         749|   -6.049953|   -4.441476|   -4.280322|   -5.988677|
|         750|   -6.050208|   -4.440691|   -4.279739|   -5.987846|
|         751|   -6.050528|   -4.439446|   -4.279265|   -5.987117|
|         752|   -6.050991|   -4.437744|   -4.278997|   -5.986357|
|         753|   -6.051619|   -4.435696|   -4.278819|   -5.985381|
|         754|   -6.052430|   -4.433391|   -4.278772|   -5.983972|
|         755|   -6.053359|   -4.430864|   -4.278808|   -5.982124|
|         756|   -6.054363|   -4.428169|   -4.278895|   -5.979698|
|         757|   -6.055476|   -4.425369|   -4.279050|   -5.976603|
|         758|   -6.056633|   -4.422514|   -4.279338|   -5.973022|
|         759|   -6.057842|   -4.419554|   -4.279826|   -5.968984|
|         760|   -6.059130|   -4.416621|   -4.280556|   -5.964570|
|         761|   -6.060473|   -4.413886|   -4.281519|   -5.959834|
|         762|   -6.061852|   -4.411517|   -4.282653|   -5.954768|
|         763|   -6.063276|   -4.409567|   -4.283937|   -5.949433|
|         764|   -6.064733|   -4.407964|   -4.285396|   -5.944060|
|         765|   -6.066172|   -4.406651|   -4.287044|   -5.938951|
|         766|   -6.067549|   -4.405641|   -4.288860|   -5.934311|
|         767|   -6.068839|   -4.404968|   -4.290784|   -5.930164|
|         768|   -6.070079|   -4.404644|   -4.292754|   -5.926408|
|         769|   -6.071323|   -4.404607|   -4.294734|   -5.922945|
|         770|   -6.072563|   -4.404756|   -4.296748|   -5.919730|
|         771|   -6.073750|   -4.405022|   -4.298830|   -5.916721|
|         772|   -6.074859|   -4.405402|   -4.300997|   -5.913854|
|         773|   -6.075919|   -4.405880|   -4.303237|   -5.911054|
|         774|   -6.076946|   -4.406367|   -4.305542|   -5.908348|
|         775|   -6.077900|   -4.406747|   -4.307925|   -5.905788|
|         776|   -6.078808|   -4.406937|   -4.310384|   -5.903310|
|         777|   -6.079665|   -4.406880|   -4.312913|   -5.900881|
|         778|   -6.080458|   -4.406536|   -4.315507|   -5.898582|
|         779|   -6.081218|   -4.405925|   -4.318166|   -5.896352|
|         780|   -6.081964|   -4.405103|   -4.320883|   -5.894220|
|         781|   -6.082689|   -4.404116|   -4.323665|   -5.892413|
|         782|   -6.083355|   -4.402950|   -4.326499|   -5.890888|
|         783|   -6.084158|   -4.401597|   -4.329363|   -5.889638|
|         784|   -6.084900|   -4.400089|   -4.332253|   -5.888944|
|         785|   -6.085720|   -4.398362|   -4.335133|   -5.888559|
|         786|   -6.086701|   -4.396377|   -4.337974|   -5.888496|
|         787|   -6.087742|   -4.394148|   -4.340770|   -5.888623|
|         788|   -6.088833|   -4.391618|   -4.343491|   -5.888962|
|         789|   -6.089950|   -4.388790|   -4.346132|   -5.889649|
|         790|   -6.091256|   -4.385632|   -4.348729|   -5.890612|
|         791|   -6.092652|   -4.382146|   -4.351334|   -5.891910|
|         792|   -6.094104|   -4.378288|   -4.353983|   -5.894090|
|         793|   -6.095711|   -4.374053|   -4.356704|   -5.896936|
|         794|   -6.097611|   -4.369479|   -4.359511|   -5.900214|
|         795|   -6.099820|   -4.364582|   -4.362410|   -5.903940|
|         796|   -6.102077|   -4.359271|   -4.365336|   -5.908590|
|         797|   -6.104678|   -4.353568|   -4.368280|   -5.913771|
|         798|   -6.107709|   -4.347572|   -4.371350|   -5.919450|
|         799|   -6.111020|   -4.341371|   -4.374594|   -5.925539|
|         800|   -6.114600|   -4.334975|   -4.378027|   -5.932069|
|         801|   -6.118639|   -4.328500|   -4.381625|   -5.938792|
|         802|   -6.122821|   -4.321936|   -4.385480|   -5.946078|
|         803|   -6.127262|   -4.315347|   -4.389520|   -5.953462|
|         804|   -6.131944|   -4.308804|   -4.393634|   -5.960701|
|         805|   -6.136769|   -4.302390|   -4.397824|   -5.967572|
|         806|   -6.141674|   -4.296170|   -4.402109|   -5.973919|
|         807|   -6.146648|   -4.290208|   -4.406423|   -5.979714|
|         808|   -6.151628|   -4.284533|   -4.410687|   -5.984795|
|         809|   -6.156628|   -4.279171|   -4.414858|   -5.989097|
|         810|   -6.161616|   -4.274113|   -4.418883|   -5.992553|
|         811|   -6.166611|   -4.269338|   -4.422663|   -5.995325|
|         812|   -6.171557|   -4.264842|   -4.426019|   -5.997499|
|         813|   -6.176447|   -4.260606|   -4.428888|   -5.999214|
|         814|   -6.181210|   -4.256649|   -4.431349|   -6.000580|
|         815|   -6.185870|   -4.253001|   -4.433375|   -6.001678|
|         816|   -6.190379|   -4.249769|   -4.435171|   -6.002839|
|         817|   -6.194742|   -4.247020|   -4.437015|   -6.004382|
|         818|   -6.198997|   -4.244752|   -4.439081|   -6.006756|
|         819|   -6.203240|   -4.242944|   -4.441456|   -6.010191|
|         820|   -6.207683|   -4.241544|   -4.444204|   -6.014858|
|         821|   -6.212435|   -4.240468|   -4.447270|   -6.021138|
|         822|   -6.217560|   -4.239709|   -4.450596|   -6.028743|
|         823|   -6.223049|   -4.239163|   -4.454207|   -6.037249|
|         824|   -6.228923|   -4.238792|   -4.457912|   -6.046403|
|         825|   -6.235027|   -4.238521|   -4.461447|   -6.055934|
|         826|   -6.241278|   -4.238275|   -4.464729|   -6.065765|
|         827|   -6.247193|   -4.238000|   -4.467697|   -6.075632|
|         828|   -6.252811|   -4.237671|   -4.470341|   -6.085088|
|         829|   -6.257998|   -4.237311|   -4.472698|   -6.093726|
|         830|   -6.262695|   -4.236926|   -4.474816|   -6.101640|
|         831|   -6.266943|   -4.236532|   -4.476676|   -6.107848|
|         832|   -6.270768|   -4.236149|   -4.478189|   -6.112417|
|         833|   -6.274004|   -4.235815|   -4.479388|   -6.116479|
|         834|   -6.277025|   -4.235580|   -4.480278|   -6.119216|
|         835|   -6.280109|   -4.235405|   -4.480949|   -6.119681|
|         836|   -6.282860|   -4.235250|   -4.481220|   -6.117915|
|         837|   -6.286092|   -4.235127|   -4.480996|   -6.114217|
|         838|   -6.288579|   -4.235047|   -4.480487|   -6.108734|
|         839|   -6.290767|   -4.235056|   -4.479776|   -6.101881|
|         840|   -6.291769|   -4.235117|   -4.479001|   -6.093661|
|         841|   -6.292372|   -4.235262|   -4.478159|   -6.084400|
|         842|   -6.292213|   -4.235442|   -4.477314|   -6.073813|
|         843|   -6.292045|   -4.235627|   -4.476389|   -6.062775|
|         844|   -6.290638|   -4.235789|   -4.475393|   -6.052817|
|         845|   -6.289458|   -4.235814|   -4.474373|   -6.042177|
|         846|   -6.287755|   -4.235632|   -4.473151|   -6.030423|
|         847|   -6.286943|   -4.235152|   -4.471799|   -6.018823|
|         848|   -6.283131|   -4.234482|   -4.470501|   -6.008559|
|         849|   -6.279012|   -4.233686|   -4.469187|   -5.998961|
|         850|   -6.273845|   -4.232927|   -4.468298|   -5.989201|
|         851|   -6.268633|   -4.232256|   -4.467868|   -5.981598|
|         852|   -6.263814|   -4.231692|   -4.467526|   -5.976052|
|         853|   -6.262606|   -4.231616|   -4.467056|   -5.971802|
|         854|   -6.260740|   -4.231934|   -4.468125|   -5.969722|
|         855|   -6.262989|   -4.232115|   -4.471328|   -5.968115|
|         856|   -6.269997|   -4.231986|   -4.476079|   -5.967675|
|         857|   -6.279181|   -4.232060|   -4.482091|   -5.968710|
|         858|   -6.290844|   -4.232837|   -4.488404|   -5.971026|
|         859|   -6.303043|   -4.234274|   -4.494744|   -5.973624|
|         860|   -6.315780|   -4.235715|   -4.501369|   -5.975335|
|         861|   -6.328092|   -4.236947|   -4.507794|   -5.975517|
|         862|   -6.338519|   -4.238131|   -4.512951|   -5.974190|
|         863|   -6.346394|   -4.239327|   -4.516706|   -5.971945|
|         864|   -6.351697|   -4.240430|   -4.519513|   -5.969631|
|         865|   -6.355092|   -4.241280|   -4.521272|   -5.968127|
|         866|   -6.356936|   -4.241804|   -4.521781|   -5.967798|
|         867|   -6.357418|   -4.242103|   -4.520568|   -5.967831|
|         868|   -6.356894|   -4.242281|   -4.517910|   -5.967163|
|         869|   -6.355717|   -4.242553|   -4.515220|   -5.965168|
|         870|   -6.353275|   -4.243148|   -4.513050|   -5.962301|
|         871|   -6.349969|   -4.243992|   -4.510339|   -5.959408|
|         872|   -6.347404|   -4.244788|   -4.507149|   -5.957268|
|         873|   -6.347403|   -4.245388|   -4.505185|   -5.956259|
|         874|   -6.351005|   -4.245836|   -4.506030|   -5.956380|
|         875|   -6.358121|   -4.246234|   -4.510010|   -5.957412|
|         876|   -6.368321|   -4.246679|   -4.516605|   -5.959007|
|         877|   -6.381438|   -4.247231|   -4.523999|   -5.960824|
|         878|   -6.398916|   -4.247961|   -4.532466|   -5.962419|
|         879|   -6.418194|   -4.248961|   -4.541065|   -5.963542|
|         880|   -6.436276|   -4.250210|   -4.548518|   -5.964128|
|         881|   -6.452337|   -4.251592|   -4.554585|   -5.964230|
|         882|   -6.466561|   -4.252996|   -4.559537|   -5.963955|
|         883|   -6.479027|   -4.254353|   -4.563558|   -5.963400|
|         884|   -6.489622|   -4.255622|   -4.566701|   -5.962695|
|         885|   -6.498458|   -4.256762|   -4.568961|   -5.961883|
|         886|   -6.505500|   -4.257751|   -4.570329|   -5.961021|
|         887|   -6.510811|   -4.258640|   -4.570803|   -5.960146|
|         888|   -6.514497|   -4.259518|   -4.570338|   -5.959266|
|         889|   -6.516595|   -4.260448|   -4.568833|   -5.958407|
|         890|   -6.517341|   -4.261454|   -4.566157|   -5.957578|
|         891|   -6.516902|   -4.262532|   -4.562163|   -5.956786|
|         892|   -6.515430|   -4.263759|   -4.556735|   -5.956036|
|         893|   -6.512896|   -4.265254|   -4.550783|   -5.955317|
|         894|   -6.509133|   -4.266714|   -4.544691|   -5.954633|
|         895|   -6.504221|   -4.267915|   -4.538510|   -5.953981|
|         896|   -6.498022|   -4.268718|   -4.532130|   -5.953356|
|         897|   -6.490557|   -4.269031|   -4.525282|   -5.952750|
|         898|   -6.482610|   -4.268786|   -4.517323|   -5.952188|
|         899|   -6.474051|   -4.268047|   -4.508198|   -5.951640|
|         900|   -6.464883|   -4.266836|   -4.498048|   -5.951099|
|         901|   -6.455702|   -4.265223|   -4.486968|   -5.950559|
|         902|   -6.446905|   -4.263359|   -4.475123|   -5.950009|
|         903|   -6.438502|   -4.261406|   -4.462757|   -5.949436|
|         904|   -6.430506|   -4.259534|   -4.450184|   -5.948820|
|         905|   -6.422653|   -4.257789|   -4.437873|   -5.948123|
|         906|   -6.414536|   -4.256156|   -4.426069|   -5.947328|
|         907|   -6.405498|   -4.254496|   -4.415196|   -5.946376|
|         908|   -6.394671|   -4.252659|   -4.405467|   -5.945181|
|         909|   -6.381990|   -4.250347|   -4.396037|   -5.943972|
|         910|   -6.366885|   -4.247686|   -4.387476|   -5.942667|
|         911|   -6.348994|   -4.244622|   -4.380750|   -5.941178|
|         912|   -6.328854|   -4.241501|   -4.376145|   -5.939586|
|         913|   -6.307859|   -4.238979|   -4.373694|   -5.937931|
|         914|   -6.287318|   -4.237696|   -4.373633|   -5.936299|
|         915|   -6.268435|   -4.237990|   -4.376078|   -5.934733|
|         916|   -6.252359|   -4.239777|   -4.380819|   -5.933273|
|         917|   -6.239984|   -4.242823|   -4.387106|   -5.931881|
|         918|   -6.232638|   -4.246912|   -4.393685|   -5.930587|
|         919|   -6.231742|   -4.252763|   -4.399146|   -5.929525|
|         920|   -6.238068|   -4.261636|   -4.402107|   -5.928560|
|         921|   -6.247677|   -4.274416|   -4.402118|   -5.927909|
|         922|   -6.254061|   -4.288524|   -4.403654|   -5.927781|
|         923|   -6.255952|   -4.301792|   -4.409712|   -5.928117|
|         924|   -6.254785|   -4.313001|   -4.418416|   -5.928657|
|         925|   -6.252311|   -4.321399|   -4.427855|   -5.929187|
|         926|   -6.249176|   -4.327546|   -4.437273|   -5.929687|
|         927|   -6.246016|   -4.332498|   -4.445651|   -5.930177|
|         928|   -6.242963|   -4.336857|   -4.451816|   -5.930677|
|         929|   -6.240078|   -4.340873|   -4.456047|   -5.931210|
|         930|   -6.237299|   -4.344880|   -4.458819|   -5.931795|
|         931|   -6.234615|   -4.348915|   -4.460548|   -5.932451|
|         932|   -6.232063|   -4.353008|   -4.461439|   -5.933206|
|         933|   -6.229627|   -4.357181|   -4.461580|   -5.934065|
|         934|   -6.227268|   -4.361417|   -4.461047|   -5.935026|
|         935|   -6.224964|   -4.365662|   -4.459919|   -5.936065|
|         936|   -6.222729|   -4.369840|   -4.458275|   -5.937126|
|         937|   -6.220589|   -4.373881|   -4.456212|   -5.938161|
|         938|   -6.218582|   -4.377735|   -4.453831|   -5.939118|
|         939|   -6.216744|   -4.381370|   -4.451194|   -5.939956|
|         940|   -6.215097|   -4.384792|   -4.448386|   -5.940653|
|         941|   -6.213636|   -4.388006|   -4.445430|   -5.941208|
|         942|   -6.212337|   -4.391020|   -4.442322|   -5.941631|
|         943|   -6.211163|   -4.393845|   -4.439105|   -5.941946|
|         944|   -6.210044|   -4.396489|   -4.435712|   -5.942186|
|         945|   -6.208934|   -4.398971|   -4.432135|   -5.942380|
|         946|   -6.207773|   -4.401306|   -4.428310|   -5.942551|
|         947|   -6.206563|   -4.403533|   -4.424352|   -5.942717|
|         948|   -6.205232|   -4.405696|   -4.420105|   -5.942890|
|         949|   -6.203792|   -4.407835|   -4.415594|   -5.943067|
|         950|   -6.202251|   -4.409978|   -4.410822|   -5.943240|
|         951|   -6.200618|   -4.412154|   -4.405773|   -5.943395|
|         952|   -6.198957|   -4.414394|   -4.400589|   -5.943525|
|         953|   -6.197266|   -4.416711|   -4.395241|   -5.943615|
|         954|   -6.195558|   -4.419095|   -4.389686|   -5.943655|
|         955|   -6.193890|   -4.421528|   -4.384006|   -5.943643|
|         956|   -6.192284|   -4.423976|   -4.378234|   -5.943581|
|         957|   -6.190767|   -4.426395|   -4.372390|   -5.943472|
|         958|   -6.189361|   -4.428748|   -4.366475|   -5.943328|
|         959|   -6.188066|   -4.430973|   -4.360504|   -5.943167|
|         960|   -6.186879|   -4.432998|   -4.354479|   -5.943002|
|         961|   -6.185797|   -4.434749|   -4.348407|   -5.942850|
|         962|   -6.184815|   -4.436161|   -4.342310|   -5.942719|
|         963|   -6.183923|   -4.437190|   -4.336215|   -5.942614|
|         964|   -6.183115|   -4.437806|   -4.330166|   -5.942532|
|         965|   -6.182383|   -4.437999|   -4.324214|   -5.942468|
|         966|   -6.181721|   -4.437790|   -4.318409|   -5.942410|
|         967|   -6.181123|   -4.437223|   -4.312804|   -5.942346|
|         968|   -6.180576|   -4.436363|   -4.307435|   -5.942262|
|         969|   -6.180060|   -4.435285|   -4.302327|   -5.942150|
|         970|   -6.179553|   -4.434071|   -4.297488|   -5.942001|
|         971|   -6.179032|   -4.432800|   -4.292903|   -5.941814|
|         972|   -6.178475|   -4.431539|   -4.288546|   -5.941591|
|         973|   -6.177868|   -4.430333|   -4.284383|   -5.941337|
|         974|   -6.177202|   -4.429223|   -4.280376|   -5.941061|
|         975|   -6.176475|   -4.428214|   -4.276493|   -5.940776|
|         976|   -6.175689|   -4.427289|   -4.272709|   -5.940492|
|         977|   -6.174860|   -4.426409|   -4.269010|   -5.940223|
[...]
|        9749|   -9.540592|   -7.724445|   -7.906228|   -6.763311|
|        9750|   -9.537771|   -7.728827|   -7.903767|   -6.763306|
|        9751|   -9.535017|   -7.733254|   -7.901353|   -6.763301|
|        9752|   -9.532334|   -7.737723|   -7.898990|   -6.763296|
|        9753|   -9.529722|   -7.742236|   -7.896700|   -6.763292|
|        9754|   -9.527171|   -7.746790|   -7.894419|   -6.763287|
|        9755|   -9.524697|   -7.751385|   -7.892257|   -6.763282|
|        9756|   -9.522276|   -7.756019|   -7.890095|   -6.763278|
|        9757|   -9.519924|   -7.760691|   -7.888006|   -6.763273|
|        9758|   -9.517635|   -7.765399|   -7.885944|   -6.763268|
|        9759|   -9.515421|   -7.770143|   -7.883994|   -6.763263|
|        9760|   -9.513258|   -7.774919|   -7.882051|   -6.763259|
|        9761|   -9.511162|   -7.779728|   -7.880183|   -6.763254|
|        9762|   -9.509124|   -7.784564|   -7.878341|   -6.763249|
|        9763|   -9.507156|   -7.789430|   -7.876593|   -6.763245|
|        9764|   -9.505241|   -7.794319|   -7.874857|   -6.763240|
|        9765|   -9.503390|   -7.799232|   -7.873208|   -6.763235|
|        9766|   -9.501593|   -7.804163|   -7.871579|   -6.763231|
|        9767|   -9.499860|   -7.809112|   -7.870022|   -6.763226|
|        9768|   -9.498181|   -7.814073|   -7.868418|   -6.763221|
|        9769|   -9.496588|   -7.819049|   -7.867073|   -6.763217|
|        9770|   -9.495010|   -7.824028|   -7.865635|   -6.763212|
|        9771|   -9.493497|   -7.829008|   -7.864168|   -6.763207|
|        9772|   -9.492075|   -7.833993|   -7.862963|   -6.763203|
|        9773|   -9.490672|   -7.838969|   -7.861696|   -6.763198|
|        9774|   -9.489331|   -7.843935|   -7.860460|   -6.763194|
|        9775|   -9.488055|   -7.848888|   -7.859302|   -6.763189|
|        9776|   -9.486832|   -7.853820|   -7.858177|   -6.763184|
|        9777|   -9.485668|   -7.858729|   -7.857134|   -6.763180|
|        9778|   -9.484546|   -7.863605|   -7.856103|   -6.763175|
|        9779|   -9.483478|   -7.868443|   -7.855128|   -6.763171|
|        9780|   -9.482463|   -7.873237|   -7.854178|   -6.763166|
|        9781|   -9.481514|   -7.877983|   -7.853340|   -6.763162|
|        9782|   -9.480608|   -7.882670|   -7.852504|   -6.763157|
|        9783|   -9.479759|   -7.887293|   -7.851732|   -6.763153|
|        9784|   -9.478960|   -7.891843|   -7.850980|   -6.763148|
|        9785|   -9.478224|   -7.896315|   -7.850336|   -6.763144|
|        9786|   -9.477529|   -7.900697|   -7.849689|   -6.763139|
|        9787|   -9.476888|   -7.904984|   -7.849099|   -6.763135|
|        9788|   -9.476297|   -7.909164|   -7.848532|   -6.763130|
|        9789|   -9.475771|   -7.913234|   -7.848079|   -6.763126|
|        9790|   -9.475283|   -7.917179|   -7.847616|   -6.763121|
|        9791|   -9.474850|   -7.920994|   -7.847206|   -6.763117|
|        9792|   -9.474470|   -7.924669|   -7.846831|   -6.763112|
|        9793|   -9.474151|   -7.928199|   -7.846594|   -6.763108|
|        9794|   -9.473859|   -7.931569|   -7.846306|   -6.763103|
|        9795|   -9.473630|   -7.934775|   -7.846100|   -6.763099|
|        9796|   -9.473455|   -7.937808|   -7.845949|   -6.763095|
|        9797|   -9.473327|   -7.940661|   -7.845868|   -6.763090|
|        9798|   -9.473238|   -7.943322|   -7.845780|   -6.763086|
|        9799|   -9.473210|   -7.945792|   -7.845770|   -6.763082|
|        9800|   -9.473228|   -7.948055|   -7.845752|   -6.763078|
|        9801|   -9.473307|   -7.950115|   -7.845873|   -6.763073|
|        9802|   -9.473415|   -7.951956|   -7.845961|   -6.763069|
|        9803|   -9.473582|   -7.953580|   -7.846116|   -6.763065|
|        9804|   -9.473797|   -7.954980|   -7.846292|   -6.763061|
|        9805|   -9.474076|   -7.956156|   -7.846582|   -6.763056|
|        9806|   -9.474391|   -7.957099|   -7.846855|   -6.763052|
|        9807|   -9.474762|   -7.957814|   -7.847223|   -6.763048|
|        9808|   -9.475174|   -7.958294|   -7.847597|   -6.763044|
|        9809|   -9.475643|   -7.958544|   -7.848040|   -6.763040|
|        9810|   -9.476153|   -7.958559|   -7.848454|   -6.763036|
|        9811|   -9.476743|   -7.958352|   -7.849078|   -6.763032|
|        9812|   -9.477349|   -7.957909|   -7.849628|   -6.763028|
|        9813|   -9.478011|   -7.957244|   -7.850244|   -6.763024|
|        9814|   -9.478721|   -7.956357|   -7.850884|   -6.763020|
|        9815|   -9.479496|   -7.955259|   -7.851633|   -6.763016|
|        9816|   -9.480310|   -7.953947|   -7.852383|   -6.763012|
|        9817|   -9.481173|   -7.952431|   -7.853188|   -6.763009|
|        9818|   -9.482082|   -7.950716|   -7.854009|   -6.763005|
|        9819|   -9.483053|   -7.948814|   -7.854929|   -6.763001|
|        9820|   -9.484065|   -7.946726|   -7.855855|   -6.762997|
|        9821|   -9.485126|   -7.944463|   -7.856765|   -6.762994|
|        9822|   -9.486261|   -7.942036|   -7.857894|   -6.762990|
|        9823|   -9.487411|   -7.939444|   -7.858945|   -6.762986|
|        9824|   -9.488620|   -7.936703|   -7.860031|   -6.762983|
|        9825|   -9.489894|   -7.933823|   -7.861240|   -6.762979|
|        9826|   -9.491206|   -7.930808|   -7.862446|   -6.762976|
|        9827|   -9.492577|   -7.927671|   -7.863718|   -6.762972|
|        9828|   -9.493992|   -7.924417|   -7.864964|   -6.762969|
|        9829|   -9.495481|   -7.921058|   -7.866413|   -6.762965|
|        9830|   -9.496984|   -7.917595|   -7.867764|   -6.762962|
|        9831|   -9.498560|   -7.914045|   -7.869222|   -6.762958|
|        9832|   -9.500188|   -7.910411|   -7.870711|   -6.762955|
|        9833|   -9.501871|   -7.906704|   -7.872271|   -6.762952|
|        9834|   -9.503600|   -7.902928|   -7.873843|   -6.762948|
|        9835|   -9.505391|   -7.899094|   -7.875497|   -6.762945|
|        9836|   -9.507229|   -7.895206|   -7.877167|   -6.762942|
|        9837|   -9.509121|   -7.891272|   -7.878893|   -6.762939|
|        9838|   -9.511064|   -7.887297|   -7.880641|   -6.762936|
|        9839|   -9.513076|   -7.883291|   -7.882506|   -6.762933|
|        9840|   -9.515128|   -7.879257|   -7.884368|   -6.762930|
|        9841|   -9.517240|   -7.875201|   -7.886294|   -6.762927|
|        9842|   -9.519412|   -7.871129|   -7.888286|   -6.762924|
|        9843|   -9.521634|   -7.867046|   -7.890321|   -6.762921|
|        9844|   -9.523911|   -7.862956|   -7.892372|   -6.762918|
|        9845|   -9.526253|   -7.858864|   -7.894534|   -6.762915|
|        9846|   -9.528635|   -7.854773|   -7.896681|   -6.762912|
|        9847|   -9.531086|   -7.850690|   -7.898905|   -6.762910|
|        9848|   -9.533580|   -7.846616|   -7.901067|   -6.762907|
|        9849|   -9.536180|   -7.842558|   -7.903518|   -6.762904|
|        9850|   -9.538784|   -7.838513|   -7.905841|   -6.762902|
|        9851|   -9.541465|   -7.834490|   -7.908253|   -6.762899|
|        9852|   -9.544200|   -7.830488|   -7.910684|   -6.762896|
|        9853|   -9.547018|   -7.826513|   -7.913249|   -6.762894|
|        9854|   -9.549882|   -7.822564|   -7.915805|   -6.762891|
|        9855|   -9.552810|   -7.818646|   -7.918438|   -6.762889|
|        9856|   -9.555793|   -7.814758|   -7.921089|   -6.762887|
|        9857|   -9.558848|   -7.810905|   -7.923821|   -6.762884|
|        9858|   -9.561954|   -7.807087|   -7.926510|   -6.762882|
|        9859|   -9.565161|   -7.803307|   -7.929447|   -6.762880|
|        9860|   -9.568386|   -7.799563|   -7.932284|   -6.762878|
|        9861|   -9.571694|   -7.795861|   -7.935215|   -6.762876|
|        9862|   -9.575064|   -7.792200|   -7.938136|   -6.762874|
|        9863|   -9.578528|   -7.788581|   -7.941264|   -6.762872|
|        9864|   -9.582025|   -7.785004|   -7.944332|   -6.762870|
|        9865|   -9.585600|   -7.781473|   -7.947470|   -6.762868|
|        9866|   -9.589240|   -7.777986|   -7.950639|   -6.762866|
|        9867|   -9.592968|   -7.774545|   -7.953931|   -6.762864|
|        9868|   -9.596752|   -7.771151|   -7.957227|   -6.762862|
|        9869|   -9.600609|   -7.767803|   -7.960593|   -6.762860|
|        9870|   -9.604529|   -7.764503|   -7.963970|   -6.762859|
|        9871|   -9.608545|   -7.761252|   -7.967490|   -6.762857|
|        9872|   -9.612618|   -7.758050|   -7.971005|   -6.762856|
|        9873|   -9.616768|   -7.754896|   -7.974585|   -6.762854|
|        9874|   -9.620987|   -7.751792|   -7.978148|   -6.762853|
|        9875|   -9.625321|   -7.748737|   -7.981957|   -6.762851|
|        9876|   -9.629693|   -7.745731|   -7.985684|   -6.762850|
|        9877|   -9.634150|   -7.742776|   -7.989483|   -6.762849|
|        9878|   -9.638697|   -7.739871|   -7.993345|   -6.762847|
|        9879|   -9.643328|   -7.737016|   -7.997295|   -6.762846|
|        9880|   -9.648020|   -7.734211|   -8.001190|   -6.762845|
|        9881|   -9.652847|   -7.731457|   -8.005347|   -6.762844|
|        9882|   -9.657710|   -7.728753|   -8.009403|   -6.762843|
|        9883|   -9.662669|   -7.726100|   -8.013545|   -6.762842|
|        9884|   -9.667712|   -7.723497|   -8.017715|   -6.762841|
|        9885|   -9.672872|   -7.720945|   -8.022037|   -6.762840|
|        9886|   -9.678101|   -7.718443|   -8.026349|   -6.762839|
|        9887|   -9.683421|   -7.715992|   -8.030719|   -6.762838|
|        9888|   -9.688843|   -7.713591|   -8.035164|   -6.762838|
|        9889|   -9.694356|   -7.711241|   -8.039673|   -6.762837|
|        9890|   -9.699964|   -7.708941|   -8.044225|   -6.762837|
|        9891|   -9.705669|   -7.706691|   -8.048845|   -6.762836|
|        9892|   -9.711464|   -7.704492|   -8.053453|   -6.762836|
|        9893|   -9.717394|   -7.702342|   -8.058271|   -6.762835|
|        9894|   -9.723383|   -7.700242|   -8.063016|   -6.762835|
|        9895|   -9.729496|   -7.698192|   -8.067862|   -6.762835|
|        9896|   -9.735709|   -7.696193|   -8.072730|   -6.762834|
|        9897|   -9.742042|   -7.694242|   -8.077718|   -6.762834|
|        9898|   -9.748465|   -7.692340|   -8.082704|   -6.762834|
|        9899|   -9.755008|   -7.690488|   -8.087762|   -6.762834|
|        9900|   -9.761639|   -7.688685|   -8.092767|   -6.762834|
|        9901|   -9.768448|   -7.686931|   -8.098047|   -6.762834|
|        9902|   -9.775315|   -7.685225|   -8.103244|   -6.762834|
|        9903|   -9.782288|   -7.683568|   -8.108437|   -6.762834|
|        9904|   -9.789413|   -7.681960|   -8.113771|   -6.762835|
|        9905|   -9.796644|   -7.680399|   -8.119110|   -6.762835|
|        9906|   -9.803997|   -7.678887|   -8.124505|   -6.762835|
|        9907|   -9.811451|   -7.677422|   -8.129870|   -6.762836|
|        9908|   -9.819077|   -7.676005|   -8.135428|   -6.762836|
|        9909|   -9.826783|   -7.674635|   -8.140915|   -6.762837|
|        9910|   -9.834615|   -7.673313|   -8.146443|   -6.762837|
|        9911|   -9.842565|   -7.672039|   -8.151955|   -6.762838|
|        9912|   -9.850682|   -7.670811|   -8.157651|   -6.762839|
|        9913|   -9.858869|   -7.669629|   -8.163237|   -6.762840|
|        9914|   -9.867212|   -7.668495|   -8.168916|   -6.762840|
|        9915|   -9.875666|   -7.667408|   -8.174589|   -6.762841|
|        9916|   -9.884240|   -7.666366|   -8.180285|   -6.762842|
|        9917|   -9.892928|   -7.665371|   -8.185954|   -6.762843|
|        9918|   -9.901759|   -7.664422|   -8.191725|   -6.762844|
|        9919|   -9.910662|   -7.663519|   -8.197398|   -6.762845|
|        9920|   -9.919706|   -7.662661|   -8.203132|   -6.762846|
|        9921|   -9.928840|   -7.661850|   -8.208822|   -6.762848|
|        9922|   -9.938076|   -7.661083|   -8.214507|   -6.762849|
|        9923|   -9.947388|   -7.660363|   -8.220110|   -6.762850|
|        9924|   -9.956829|   -7.659686|   -8.225807|   -6.762852|
|        9925|   -9.966305|   -7.659056|   -8.231376|   -6.762853|
|        9926|   -9.975820|   -7.658470|   -8.236841|   -6.762854|
|        9927|   -9.985447|   -7.657929|   -8.242379|   -6.762856|
|        9928|   -9.995043|   -7.657433|   -8.247714|   -6.762857|
|        9929|  -10.004699|   -7.656981|   -8.253075|   -6.762859|
|        9930|  -10.014339|   -7.656574|   -8.258319|   -6.762861|
|        9931|  -10.023937|   -7.656211|   -8.263431|   -6.762862|
|        9932|  -10.033486|   -7.655893|   -8.268449|   -6.762864|
|        9933|  -10.042956|   -7.655619|   -8.273335|   -6.762866|
|        9934|  -10.052319|   -7.655389|   -8.278120|   -6.762868|
|        9935|  -10.061505|   -7.655203|   -8.282716|   -6.762870|
|        9936|  -10.070527|   -7.655062|   -8.287183|   -6.762872|
|        9937|  -10.079306|   -7.654965|   -8.291462|   -6.762874|
|        9938|  -10.087807|   -7.654912|   -8.295562|   -6.762876|
|        9939|  -10.095992|   -7.654903|   -8.299467|   -6.762878|
|        9940|  -10.103799|   -7.654938|   -8.303175|   -6.762880|
|        9941|  -10.111163|   -7.655016|   -8.306640|   -6.762882|
|        9942|  -10.118077|   -7.655138|   -8.309908|   -6.762884|
|        9943|  -10.124435|   -7.655304|   -8.312907|   -6.762886|
|        9944|  -10.130203|   -7.655514|   -8.315653|   -6.762889|
|        9945|  -10.135346|   -7.655768|   -8.318139|   -6.762891|
|        9946|  -10.139799|   -7.656064|   -8.320362|   -6.762894|
|        9947|  -10.143515|   -7.656404|   -8.322291|   -6.762896|
|        9948|  -10.146489|   -7.656788|   -8.323950|   -6.762898|
|        9949|  -10.148663|   -7.657215|   -8.325305|   -6.762901|
|        9950|  -10.150021|   -7.657686|   -8.326364|   -6.762903|
|        9951|  -10.150577|   -7.658199|   -8.327135|   -6.762906|
|        9952|  -10.150294|   -7.658756|   -8.327601|   -6.762909|
|        9953|  -10.149197|   -7.659356|   -8.327768|   -6.762911|
|        9954|  -10.147324|   -7.660000|   -8.327655|   -6.762914|
|        9955|  -10.144675|   -7.660687|   -8.327242|   -6.762917|
|        9956|  -10.141285|   -7.661416|   -8.326539|   -6.762920|
|        9957|  -10.137221|   -7.662190|   -8.325570|   -6.762922|
|        9958|  -10.132490|   -7.663006|   -8.324315|   -6.762925|
|        9959|  -10.127165|   -7.663866|   -8.322796|   -6.762928|
|        9960|  -10.121318|   -7.664769|   -8.321045|   -6.762931|
|        9961|  -10.114966|   -7.665716|   -8.319033|   -6.762934|
|        9962|  -10.108171|   -7.666706|   -8.316779|   -6.762937|
|        9963|  -10.101008|   -7.667739|   -8.314315|   -6.762940|
|        9964|  -10.093495|   -7.668816|   -8.311621|   -6.762943|
|        9965|  -10.085710|   -7.669937|   -8.308726|   -6.762946|
|        9966|  -10.077680|   -7.671101|   -8.305647|   -6.762949|
|        9967|  -10.069461|   -7.672309|   -8.302393|   -6.762952|
|        9968|  -10.061081|   -7.673560|   -8.298952|   -6.762955|
|        9969|  -10.052574|   -7.674856|   -8.295355|   -6.762959|
|        9970|  -10.043976|   -7.676194|   -8.291601|   -6.762962|
|        9971|  -10.035336|   -7.677578|   -8.287737|   -6.762965|
|        9972|  -10.026656|   -7.679005|   -8.283728|   -6.762968|
|        9973|  -10.017959|   -7.680476|   -8.279598|   -6.762972|
|        9974|  -10.009273|   -7.681991|   -8.275339|   -6.762975|
|        9975|  -10.000642|   -7.683551|   -8.271058|   -6.762978|
|        9976|   -9.992036|   -7.685155|   -8.266652|   -6.762981|
|        9977|   -9.983483|   -7.686804|   -8.262163|   -6.762985|
|        9978|   -9.975001|   -7.688497|   -8.257581|   -6.762988|
|        9979|   -9.966626|   -7.690236|   -8.253025|   -6.762992|
|        9980|   -9.958320|   -7.692019|   -8.248366|   -6.762995|
|        9981|   -9.950111|   -7.693848|   -8.243695|   -6.762998|
|        9982|   -9.941995|   -7.695721|   -8.238959|   -6.763002|
|        9983|   -9.934004|   -7.697640|   -8.234236|   -6.763005|
|        9984|   -9.926121|   -7.699605|   -8.229488|   -6.763009|
|        9985|   -9.918348|   -7.701615|   -8.224724|   -6.763012|
|        9986|   -9.910700|   -7.703672|   -8.219964|   -6.763016|
|        9987|   -9.903163|   -7.705773|   -8.215189|   -6.763019|
|        9988|   -9.895758|   -7.707922|   -8.210445|   -6.763023|
|        9989|   -9.888467|   -7.710116|   -8.205664|   -6.763027|
|        9990|   -9.881314|   -7.712357|   -8.200966|   -6.763030|
|        9991|   -9.874267|   -7.714643|   -8.196236|   -6.763034|
|        9992|   -9.867360|   -7.716978|   -8.191588|   -6.763037|
|        9993|   -9.860562|   -7.719358|   -8.186925|   -6.763041|
|        9994|   -9.853889|   -7.721786|   -8.182296|   -6.763045|
|        9995|   -9.847341|   -7.724260|   -8.177704|   -6.763048|
|        9996|   -9.840911|   -7.726782|   -8.173140|   -6.763052|
|        9997|   -9.834604|   -7.729351|   -8.168627|   -6.763055|
|        9998|   -9.828402|   -7.731967|   -8.164087|   -6.763059|
|        9999|   -9.822341|   -7.734631|   -8.159672|   -6.763063|

----------------------------- Solver Exit -------------------------------

Maximum number of iterations reached (ITER = 10000) before convergence.
+-----------------------------------------------------------------------+
|      Convergence Field     |     Value    |   Criterion  |  Converged |
+-----------------------------------------------------------------------+
|                      rms[P]|      -9.82234|         < -10|          No|
|                      rms[U]|      -7.73463|         < -10|          No|
|                      rms[V]|      -8.15967|         < -10|          No|
|                      rms[k]|      -7.69449|         < -10|          No|
+-----------------------------------------------------------------------+
-------------------------------------------------------------------------
+-----------------------------------------------------------------------+
|        File Writing Summary       |              Filename             |
+-----------------------------------------------------------------------+
|SU2 restart                        |restart_venturi_mixturedensity_30kW_fine_test.dat|
|                                   |                     (81.3605 MB/s)|
|Paraview                           |flow_venturi_mixturedensity_30kW_fine_test_00009999.vtu|
|                                   |                     (3.25104 MB/s)|
|Paraview surface                   |surface_flow_venturi_mixturedensity_30kW_fine_test.vtu|
|                                   |                     (3.58553 MB/s)|
+-----------------------------------------------------------------------+

------------------------- Solver Postprocessing -------------------------
Deleted CNumerics container.
Deleted CIntegration container.
Deleted CSolver container.
Deleted CIteration container.
Deleted CInterface container.
Deleted CGeometry container.
Deleted CFreeFormDefBox class.
Deleted CSurfaceMovement class.
Deleted CVolumetricMovement class.
Deleted CConfig container.
Deleted nInst container.
Deleted COutput class.
-------------------------------------------------------------------------


-------------------------- Performance Summary --------------------------
Simulation totals:
   Wall-clock time (hrs):    0.176725 |            Core-hrs:     24.7415
                   Cores:         140 |          DOFs/point:           7
             Points/core:     2092.49 |   Ghost points/core:     197.607
 Ghost/Owned Point Ratio:   0.0944366 | 

Preprocessing phase:
       Preproc. Time (s):     0.62899 |   Preproc. Time (%):   0.0988649

Compute phase:
        Compute Time (s):     619.619 |    Compute Time (%):     97.3921
         Iteration count:       10000 |         Avg. s/iter:   0.0619619
     Core-s/iter/Mpoints:     27.0565 |           Mpoints/s:     5.17436

Output phase:
         Output Time (s):      15.963 |     Output Time (%):     2.50907
            Output count:           1 |       Avg. s/output:      15.963
 Restart Aggr. BW (MB/s):     1587.17 |           MB/s/core:     11.3369
-------------------------------------------------------------------------


------------------------- Exit Success (SU2_CFD) ------------------------

