%%%%%%%%%%%%%%%%%%%%%%%%%%%%%%%%%%%%%%%%%%%%%%%%%%%%%%%%%%%%%%%%%%%%%%%%%%%%%%%%
%                                                                              %
% SU2 configuration file                                                       %
% Case description: _________________________________________________________  %
% Author: ___________________________________________________________________  %
% Institution: ______________________________________________________________  %
% Date: __________                                                             %
% File Version 6.1.0 "Falcon"                                                  %
%                                                                              %
%%%%%%%%%%%%%%%%%%%%%%%%%%%%%%%%%%%%%%%%%%%%%%%%%%%%%%%%%%%%%%%%%%%%%%%%%%%%%%%%

% ------------- DIRECT, ADJOINT, AND LINEARIZED PROBLEM DEFINITION ------------%
%
% Physical governing equations (EULER, NAVIER_STOKES,
%                               WAVE_EQUATION, HEAT_EQUATION, FEM_ELASTICITY,
%                               POISSON_EQUATION)
%PHYSICAL_PROBLEM= EULER        
PHYSICAL_PROBLEM= NAVIER_STOKES
%
% Regime type (COMPRESSIBLE, INCOMPRESSIBLE, FREESURFACE)
REGIME_TYPE= INCOMPRESSIBLE
%
% Mathematical problem (DIRECT, CONTINUOUS_ADJOINT, DISCRETE_ADJOINT)
MATH_PROBLEM= DIRECT
%MATH_PROBLEM= DISCRETE_ADJOINT
%
% Restart solution (NO, YES)
RESTART_SOL= YES
%
% System of measurements (SI, US)
% International system of units (SI): ( meters, kilograms, Kelvins,
%                                       Newtons = kg m/s^2, Pascals = N/m^2, 
%                                       Density = kg/m^3, Speed = m/s,
%                                       Equiv. Area = m^2 )
% United States customary units (US): ( inches, slug, Rankines, lbf = slug ft/s^2, 
%                                       psf = lbf/ft^2, Density = slug/ft^3, 
%                                       Speed = ft/s, Equiv. Area = ft^2 )
SYSTEM_MEASUREMENTS= SI

% ---------------- INCOMPRESSIBLE FLOW CONDITION DEFINITION -------------------%
%
% Density model within the incompressible flow solver.
% Options are CONSTANT (default), BOUSSINESQ, or VARIABLE. If VARIABLE,
% an appropriate fluid model must be selected.
INC_DENSITY_MODEL= CONSTANT
%
% Solve the energy equation in the incompressible flow solver
INC_ENERGY_EQUATION = NO
%
% Initial density for incompressible flows (1.2886 kg/m^3 by default)
INC_DENSITY_INIT= 1.0
%
% Initial velocity for incompressible flows (1.0,0,0 m/s by default)
INC_VELOCITY_INIT= ( 1.0, 0.0, 0.0 )
%
% Initial temperature for incompressible flows that include the
% energy equation (288.15 K by default). Value is ignored if
% INC_ENERGY_EQUATION is false.
INC_TEMPERATURE_INIT= 288.15
%
% Non-dimensionalization scheme for incompressible flows. Options are
% INITIAL_VALUES (default), REFERENCE_VALUES, or DIMENSIONAL.
% INC_*_REF values are ignored unless REFERENCE_VALUES is chosen.
%INC_NONDIM= DIMENSIONAL
%
% Reference density for incompressible flows (1.0 kg/m^3 by default)
INC_DENSITY_REF= 1.0
%
% Reference velocity for incompressible flows (1.0 m/s by default)
INC_VELOCITY_REF= 1.0
%
% Reference temperature for incompressible flows that include the
% energy equation (1.0 K by default)
INC_TEMPERATURE_REF = 1.0

%INC_INLET_TYPE= VELOCITY_INLET VELOCITY_INLET
%INC_INLET_TYPE= PRESSURE_INLET PRESSURE_INLET

%INC_OUTLET_TYPE= PRESSURE_OUTLET
%INC_OUTLET_TYPE= MASS_FLOW_OUTLET

% ---------------------- REFERENCE VALUE DEFINITION ---------------------------%
%
% Reference area for non-dimensional force coefficients (0 implies automatic
% calculation) (m^2 or in^2)
REF_AREA= 0.0

% --------------------------- VISCOSITY MODEL ---------------------------------%
%
% Viscosity model (SUTHERLAND, CONSTANT_VISCOSITY).
VISCOSITY_MODEL= CONSTANT_VISCOSITY
%
% Molecular Viscosity that would be constant (1.716E-5 by default)
MU_CONSTANT= 2e-03

% -------------------- BOUNDARY CONDITION DEFINITION --------------------------%
%
% Euler wall boundary marker(s) (NONE = no marker)
MARKER_HEATFLUX= ( NEEDLE, 0.0, NEEDLECASE, 0.0,VENTURIWALL, 0.0 )
MARKER_SYM= ( AXIS )
%MARKER_EULER= ( NEEDLE,  NEEDLECASE, VENTURIWALL, AXIS )
%
% Inlet boundary marker(s) with the following formats (NONE = no marker)
% Total Conditions: (inlet marker, total temp, total pressure, flow_direction_x,
%           flow_direction_y, flow_direction_z, ... ) where flow_direction is
%           a unit vector.
% Mass Flow: (inlet marker, density, velocity magnitude, flow_direction_x,
%           flow_direction_y, flow_direction_z, ... ) where flow_direction is
%           a unit vector.
% Incompressible: (inlet marker, temperature, velocity magnitude, flow_direction_x,
%           flow_direction_y, flow_direction_z, ... ) where flow_direction is
%           a unit vector.
MARKER_INLET= ( PRESSURE-INLET-GAS, 293.15, 6.33876, 1.0, 0.0, 0.0 ,PRESSURE-INLET-AIR, 293.15, 6.28325, 0.0, -1.0, 0.0 )
%
% Outlet boundary marker(s) (NONE = no marker)
% Format: ( outlet marker, back pressure (static), ... )
MARKER_OUTLET= ( PRESSURE-OUTLET, 0.0015)
%MARKER_OUTLET= ( PRESSURE-OUTLET, 0.0075 )
%MARKER_OUTLET= ( PRESSURE-OUTLET, 0.0135 )

% ------------------------ SURFACES IDENTIFICATION ----------------------------%
%
% Marker(s) of the surface in the surface flow solution file
MARKER_PLOTTING = ( NEEDLE, NEEDLECASE, VENTURIWALL, AXIS )
%
% Marker(s) of the surface where the non-dimensional coefficients are evaluated.
MARKER_MONITORING = ( NEEDLE, NEEDLECASE, VENTURIWALL, AXIS )
%
% Marker(s) of the surface that is going to be analyzed in detail (massflow, average pressure, distortion, etc)
MARKER_ANALYZE = ( PRESSURE-INLET-GAS, PRESSURE-INLET-AIR, PRESSURE-OUTLET )
%
% Method to compute the average value in MARKER_ANALYZE (AREA, MASSFLUX).
MARKER_ANALYZE_AVERAGE = AREA

% ------------- COMMON PARAMETERS DEFINING THE NUMERICAL METHOD ---------------%
%
% Numerical method for spatial gradients (GREEN_GAUSS, WEIGHTED_LEAST_SQUARES)
NUM_METHOD_GRAD= GREEN_GAUSS
%
% CFL number (initial value for the adaptive CFL number
CFL_NUMBER= 1e4
%
% Objective function in gradient evaluation   (DRAG, LIFT, SIDEFORCE, MOMENT_X,
%                                             MOMENT_Y, MOMENT_Z, EFFICIENCY,
%                                             EQUIVALENT_AREA, NEARFIELD_PRESSURE,
%                                             FORCE_X, FORCE_Y, FORCE_Z, THRUST,
%                                             TORQUE, TOTAL_HEATFLUX,
%                                             MAXIMUM_HEATFLUX, INVERSE_DESIGN_PRESSURE,
%                                             INVERSE_DESIGN_HEATFLUX, SURFACE_TOTAL_PRESSURE,
%                                             SURFACE_MASSFLOW, SURFACE_STATIC_PRESSURE, SURFACE_MACH)
% For a weighted sum of objectives: separate by commas, add OBJECTIVE_WEIGHT and MARKER_MONITORING in matching order.
OBJECTIVE_FUNCTION= CUSTOM_OBJFUNC
%
% List of weighting values when using more than one OBJECTIVE_FUNCTION. Separate by commas and match with MARKER_MONITORING.
OBJECTIVE_WEIGHT = 1.0

% ------------------------ LINEAR SOLVER DEFINITION ---------------------------%
%
% Linear solver or smoother for implicit formulations (BCGSTAB, FGMRES, SMOOTHER_JACOBI, 
%                                                      SMOOTHER_ILU, SMOOTHER_LUSGS, 
%                                                      SMOOTHER_LINELET)
LINEAR_SOLVER= FGMRES
%
% Preconditioner of the Krylov linear solver (ILU, LU_SGS, LINELET, JACOBI)
LINEAR_SOLVER_PREC= ILU
%
% Linael solver ILU preconditioner fill-in level (0 by default)
LINEAR_SOLVER_ILU_FILL_IN= 0
%
% Minimum error of the linear solver for implicit formulations
LINEAR_SOLVER_ERROR= 1E-12
%
% Max number of iterations of the linear solver for the implicit formulation
LINEAR_SOLVER_ITER= 2

% -------------------------- MULTIGRID PARAMETERS -----------------------------%
%
% Multi-grid levels (0 = no multi-grid)
MGLEVEL= 0
%
% Multi-grid cycle (V_CYCLE, W_CYCLE, FULLMG_CYCLE
MGCYCLE= V_CYCLE
%
% Multi-grid pre-smoothing level
MG_PRE_SMOOTH= ( 1, 1, 1, 1 )
%
% Multi-grid post-smoothing level
MG_POST_SMOOTH= ( 0, 0, 0, 0 )
%
% Jacobi implicit smoothing of the correction
MG_CORRECTION_SMOOTH= ( 0, 0, 0, 0 )
%
% Damping factor for the residual restriction
MG_DAMP_RESTRICTION= 0.7
%
% Damping factor for the correction prolongation
MG_DAMP_PROLONGATION= 0.7

% ----------- SLOPE LIMITER AND DISSIPATION SENSOR DEFINITION -----------------%
%
% Monotonic Upwind Scheme for Conservation Laws (TVD) in the flow equations.
%           Required for 2nd order upwind schemes (NO, YES)
MUSCL_FLOW= YES
%
% Slope limiter (NONE, VENKATAKRISHNAN, VENKATAKRISHNAN_WANG,
%                BARTH_JESPERSEN, VAN_ALBADA_EDGE)
SLOPE_LIMITER_FLOW= NONE

% -------------------- FLOW NUMERICAL METHOD DEFINITION -----------------------%
%
% Convective numerical method (JST, LAX-FRIEDRICH, CUSP, ROE, AUSM, HLLC,
%                              TURKEL_PREC, MSW, FDS)
CONV_NUM_METHOD_FLOW= FDS

% --------------------------- CONVERGENCE PARAMETERS --------------------------%
%
% Number of total iterations
EXT_ITER= 3000
%
% Residual reduction (order of magnitude with respect to the initial value)
RESIDUAL_REDUCTION= 5
%
% Min value of the residual (log10 of the residual)
RESIDUAL_MINVAL= -10

% ------------------------- INPUT/OUTPUT INFORMATION --------------------------%
%
% Mesh input file
MESH_FILENAME= venturi_2D_coarse_ffd.su2 
%
% Mesh input file format (SU2, CGNS)
MESH_FORMAT= SU2 
%
% Mesh output file
MESH_OUT_FILENAME= mesh_out.su2
%
% Restart flow input file
SOLUTION_FLOW_FILENAME= solution_flow.dat
%
% Restart adjoint input file
SOLUTION_ADJ_FILENAME= solution_adj.dat
%
% Output file format (TECPLOT, TECPLOT_BINARY, PARAVIEW, PARAVIEW_BINARY,
%                     FIELDVIEW, FIELDVIEW_BINARY)
OUTPUT_FORMAT= PARAVIEW_BINARY
%
% Output file convergence history (w/o extension)
CONV_FILENAME= history
%
% Output file with the forces breakdown
BREAKDOWN_FILENAME= forces_breakdown.dat
%
% Output file restart flow
RESTART_FLOW_FILENAME= restart_flow.dat
%
% Output file restart adjoint
RESTART_ADJ_FILENAME= restart_adj.dat
%
% Output file flow (w/o extension) variables
VOLUME_FLOW_FILENAME= flow
%
% Output file adjoint (w/o extension) variables
VOLUME_ADJ_FILENAME= adjoint
%
% Output Objective function
VALUE_OBJFUNC_FILENAME= of_eval.dat
%
% Output objective function gradient (using continuous adjoint)
GRAD_OBJFUNC_FILENAME= of_grad.dat
%
% Output file surface flow coefficient (w/o extension)
SURFACE_FLOW_FILENAME= surface_flow
%
% Output file surface adjoint coefficient (w/o extension)
SURFACE_ADJ_FILENAME= surface_adjoint
%
% Writing solution file frequency
WRT_SOL_FREQ= 250

% ----------------------- DESIGN VARIABLE PARAMETERS --------------------------%
%
% Kind of deformation (NO_DEFORMATION, TRANSLATION, ROTATION, SCALE,
%                      FFD_SETTING, FFD_NACELLE
%                      FFD_CONTROL_POINT, FFD_CAMBER, FFD_THICKNESS, FFD_TWIST
%                      FFD_CONTROL_POINT_2D, FFD_CAMBER_2D, FFD_THICKNESS_2D, FFD_TWIST_2D,
%                      HICKS_HENNE, SURFACE_BUMP)
DV_KIND= FFD_SETTING   
%
% Marker of the surface in which we are going apply the shape deformation
DV_MARKER= NEEDLE, NEEDLECASE, VENTURIWALL
%
% Parameters of the shape deformation
% - NO_DEFORMATION ( 1.0 )
% - TRANSLATION ( x_Disp, y_Disp, z_Disp ), as a unit vector
% - ROTATION ( x_Orig, y_Orig, z_Orig, x_End, y_End, z_End )
% - SCALE ( 1.0 )
% - ANGLE_OF_ATTACK ( 1.0 )
% - FFD_SETTING ( 1.0 )
% - FFD_CONTROL_POINT ( FFD_BoxTag, i_Ind, j_Ind, k_Ind, x_Disp, y_Disp, z_Disp )
% - FFD_NACELLE ( FFD_BoxTag, rho_Ind, theta_Ind, phi_Ind, rho_Disp, phi_Disp )
% - FFD_GULL ( FFD_BoxTag, j_Ind )
% - FFD_ANGLE_OF_ATTACK ( FFD_BoxTag, 1.0 )
% - FFD_CAMBER ( FFD_BoxTag, i_Ind, j_Ind )
% - FFD_THICKNESS ( FFD_BoxTag, i_Ind, j_Ind )
% - FFD_TWIST ( FFD_BoxTag, j_Ind, x_Orig, y_Orig, z_Orig, x_End, y_End, z_End )
% - FFD_CONTROL_POINT_2D ( FFD_BoxTag, i_Ind, j_Ind, x_Disp, y_Disp )
% - FFD_CAMBER_2D ( FFD_BoxTag, i_Ind )
% - FFD_THICKNESS_2D ( FFD_BoxTag, i_Ind )
% - FFD_TWIST_2D ( FFD_BoxTag, x_Orig, y_Orig )
% - HICKS_HENNE ( Lower Surface (0)/Upper Surface (1)/Only one Surface (2), x_Loc )
% - SURFACE_BUMP ( x_Start, x_End, x_Loc )
DV_PARAM= ( 1.0 )
%
% Value of the shape deformation
DV_VALUE= 0.0001
% -------------------- FREE-FORM DEFORMATION PARAMETERS -----------------------%
%
% Tolerance of the Free-Form Deformation point inversion
FFD_TOLERANCE= 1E-10
%
% Maximum number of iterations in the Free-Form Deformation point inversion
FFD_ITERATIONS= 1000
%
% FFD box definition: 3D case (FFD_BoxTag, X1, Y1, Z1, X2, Y2, Z2, X3, Y3, Z3, X4, Y4, Z4,
%                              X5, Y5, Z5, X6, Y6, Z6, X7, Y7, Z7, X8, Y8, Z8)
%                     2D case (FFD_BoxTag, X1, Y1, 0.0, X2, Y2, 0.0, X3, Y3, 0.0, X4, Y4, 0.0,
%                              0.0, 0.0, 0.0, 0.0, 0.0, 0.0, 0.0, 0.0, 0.0, 0.0, 0.0, 0.0)
FFD_DEFINITION= (MAIN_BOX, 0.040,0.0, 0.0, 0.065, 0.0, 0.0, 0.065, 0.018, 0.0, 0.040, 0.018, 0.0, 0.0, 0.0, 0.0, 0.0, 0.0, 0.0, 0.0, 0.0, 0.0, 0.0, 0.0, 0.0)
%
% FFD box degree: 3D case (x_degree, y_degree, z_degree)
%                 2D case (x_degree, y_degree, 0)
FFD_DEGREE= ( 15, 15, 0)
%
% Surface continuity at the intersection with the FFD (1ST_DERIVATIVE, 2ND_DERIVATIVE)
%FFD_CONTINUITY= 2ND_DERIVATIVE
FFD_CONTINUITY= USER_INPUT     
%
% Definition of the FFD planes to be frozen in the FFD (x,y,z).
% Value from 0 FFD degree in that direction. Pick a value larger than degree if you don't want to fix any plane.
% fixes ALL points with these indices (vertical lines)
FFD_FIX_I= (0,1,14,15)
% horizontal lines, 0 and 1 for smooth transition (C1)
FFD_FIX_J= (0,1,14,15)
% put a large number here
FFD_FIX_K= (150)
%

% ------------------------ GRID DEFORMATION PARAMETERS ------------------------%
%
% Linear solver or smoother for implicit formulations (FGMRES, RESTARTED_FGMRES, BCGSTAB)
DEFORM_LINEAR_SOLVER= FGMRES
%
% Number of smoothing iterations for mesh deformation
DEFORM_LINEAR_ITER= 1000
%
% Number of nonlinear deformation iterations (surface deformation increments)
DEFORM_NONLINEAR_ITER= 1
%
% Print the residuals during mesh deformation to the console (YES, NO)
DEFORM_CONSOLE_OUTPUT= YES
%
% Factor to multiply smallest cell volume for deform tolerance (0.001 default)
DEFORM_TOL_FACTOR = 1e-6
%
% Type of element stiffness imposed for FEA mesh deformation (INVERSE_VOLUME,
%                                          WALL_DISTANCE, CONSTANT_STIFFNESS)
DEFORM_STIFFNESS_TYPE= INVERSE_VOLUME
%
% Visualize the surface deformation (NO, YES)
VISUALIZE_SURFACE_DEF= YES
%
% Visualize the volume deformation (NO, YES)
VISUALIZE_VOLUME_DEF= YES

% Optimization options
%
% FFD_CONTROL_POINT (X)
% Optimization objective function with scaling factor, separated by semicolons.
% To include quadratic penalty function: use OPT_CONSTRAINT option syntax within the OPT_OBJECTIVE list.
% ex= Objective * Scale
OPT_OBJECTIVE= CUSTOM_OBJFUNC * 0.001
%
% Optimization constraint functions with pushing factors (affects its value, not the gradient  in the python scripts), separated by semicolons
% ex= (Objective = Value ) * Scale, use '>','<','='
%OPT_CONSTRAINT= ( LIFT > 0.328188 ) * 0.001; ( MOMENT_Z > 0.034068 ) * 0.001; ( AIRFOIL_THICKNESS > 0.11 ) * 0.001
%
% Maximum number of iterations
OPT_ITERATIONS= 100
%
% Requested accuracy
OPT_ACCURACY= 1E-10
%
% Upper bound for each design variable (bound in the python optimizer)
OPT_BOUND_UPPER= 0.002
%
% Lower bound for each design variable (bound in the python optimizer)
OPT_BOUND_LOWER= -0.002
%
DEFINITION_DV= ( 15, 1.0 | NEEDLE,NEEDLECASE,VENTURIWALL | MAIN_BOX, 0, 0, 1.0, 0.0 ); ( 15, 1.0 | NEEDLE,NEEDLECASE,VENTURIWALL | MAIN_BOX, 1, 0, 1.0, 0.0 ); ( 15, 1.0 | NEEDLE,NEEDLECASE,VENTURIWALL | MAIN_BOX, 2, 0, 1.0, 0.0 ); ( 15, 1.0 | NEEDLE,NEEDLECASE,VENTURIWALL | MAIN_BOX, 3, 0, 1.0, 0.0 ); ( 15, 1.0 | NEEDLE,NEEDLECASE,VENTURIWALL | MAIN_BOX, 4, 0, 1.0, 0.0 ); ( 15, 1.0 | NEEDLE,NEEDLE

